


 33 34  0  0  0  0  0  0  0  0999 V2000
  -10.1493   -1.6018  -23.1498 C   0  0  0  0  0  0  0  0  0  0  0  0
  -11.1759   -2.4041  -22.6830 C   0  0  0  0  0  0  0  0  0  0  0  0
  -12.4809   -1.9602  -22.5763 C   0  0  0  0  0  0  0  0  0  0  0  0
  -13.7425   -3.0073  -21.9828 Cl  0  0  0  0  0  0  0  0  0  0  0  0
  -12.7534   -0.6500  -22.9585 C   0  0  0  0  0  0  0  0  0  0  0  0
  -11.7596    0.1845  -23.4295 C   0  0  0  0  0  0  0  0  0  0  0  0
  -10.4669   -0.3129  -23.5162 C   0  0  0  0  0  0  0  0  0  0  0  0
  -12.0938    1.5511  -23.8169 C   0  0  0  0  0  0  0  0  0  0  0  0
  -11.1233    2.3870  -24.3282 C   0  0  0  0  0  0  0  0  0  0  0  0
  -11.4131    3.6939  -24.7069 C   0  0  0  0  0  0  0  0  0  0  0  0
  -12.6880    4.2057  -24.5848 C   0  0  0  0  0  0  0  0  0  0  0  0
  -13.6588    3.3708  -24.0738 C   0  0  0  0  0  0  0  0  0  0  0  0
  -13.3700    2.0676  -23.6961 C   0  0  0  0  0  0  0  0  0  0  0  0
  -13.0560    5.8583  -25.0647 S   0  0  0  0  0  0  0  0  0  0  0  0
  -14.0702    6.6270  -23.9037 N   0  0  0  0  0  0  0  0  0  0  0  0
  -11.7854    6.6598  -25.1590 O   0  0  0  0  0  0  0  0  0  0  0  0
  -13.6738    5.8096  -26.4158 O   0  0  0  0  0  0  0  0  0  0  0  0
  -14.2468    6.0086  -23.0754 H   0  0  0  0  0  0  0  0  0  0  0  0
  -13.7587    7.5738  -23.6471 H   0  0  0  0  0  0  0  0  0  0  0  0
   -8.7546   -2.0932  -23.2574 C   0  0  0  0  0  0  0  0  0  0  0  0
   -8.8428   -3.6166  -23.3386 C   0  0  0  0  0  0  0  0  0  0  0  0
   -6.7189   -0.9940  -22.2917 C   0  0  0  0  0  0  0  0  0  0  0  0
   -6.3518   -0.7206  -23.4624 O   0  0  0  0  0  0  0  0  0  0  0  0
   -7.9338   -1.6910  -22.1401 N   0  0  0  0  0  0  0  0  0  0  0  0
   -8.2613   -1.9308  -21.1835 H   0  0  0  0  0  0  0  0  0  0  0  0
   -5.8522   -0.5645  -21.1884 C   0  0  0  0  0  0  0  0  0  0  0  0
   -5.2595   -1.6404  -20.5255 O   0  0  0  0  0  0  0  0  0  0  0  0
   -5.8445   -1.8431  -18.9881 S   0  0  0  0  0  0  0  0  0  0  0  0
   -5.6504   -3.2873  -18.5921 O   0  0  0  0  0  0  0  0  0  0  0  0
   -7.3186   -1.5532  -18.8944 O   0  0  0  0  0  0  0  0  0  0  0  0
   -5.5148    0.4743  -17.7859 C   0  0  0  0  0  0  0  0  0  0  0  0
   -5.0080   -0.8755  -17.8248 N   0  0  0  0  0  0  0  0  0  0  0  0
   -5.0448   -1.2771  -16.8686 H   0  0  0  0  0  0  0  0  0  0  0  0
 31 32  1  0  0  0
 32 28  1  0  0  0
 28 29  2  0  0  0
 28 30  2  0  0  0
 28 27  1  0  0  0
 27 26  1  0  0  0
 26 22  1  0  0  0
 22 23  2  0  0  0
 22 24  1  0  0  0
 24 20  1  0  0  0
 20 21  1  0  0  0
 20  1  1  0  0  0
  1  2  2  0  0  0
  2  3  1  0  0  0
  3  4  1  0  0  0
  3  5  2  0  0  0
  5  6  1  0  0  0
  6  8  1  0  0  0
  8  9  2  0  0  0
  9 10  1  0  0  0
 10 11  2  0  0  0
 11 14  1  0  0  0
 14 15  1  0  0  0
 14 16  2  0  0  0
 14 17  2  0  0  0
 11 12  1  0  0  0
 12 13  2  0  0  0
  6  7  2  0  0  0
  7  1  1  0  0  0
 13  8  1  0  0  0
 32 33  1  0  0  0
 24 25  1  0  0  0
 15 18  1  0  0  0
 15 19  1  0  0  0
M  END
> <minimizedAffinity>
-8.08109

> <CNNscore>
0.8893783689

> <CNNaffinity>
6.6214509010

> <CNN_VS>
5.8889751434

> <CNNaffinity_variance>
0.2609826624

$$$$



 33 34  0  0  0  0  0  0  0  0999 V2000
  -10.1436   -1.3367  -22.9372 C   0  0  0  0  0  0  0  0  0  0  0  0
  -11.2015   -2.1663  -22.6089 C   0  0  0  0  0  0  0  0  0  0  0  0
  -12.5206   -1.7587  -22.6816 C   0  0  0  0  0  0  0  0  0  0  0  0
  -13.8218   -2.8393  -22.2581 Cl  0  0  0  0  0  0  0  0  0  0  0  0
  -12.7745   -0.4573  -23.1045 C   0  0  0  0  0  0  0  0  0  0  0  0
  -11.7494    0.4037  -23.4417 C   0  0  0  0  0  0  0  0  0  0  0  0
  -10.4437   -0.0579  -23.3504 C   0  0  0  0  0  0  0  0  0  0  0  0
  -12.0653    1.7598  -23.8783 C   0  0  0  0  0  0  0  0  0  0  0  0
  -13.3522    2.2439  -23.7707 C   0  0  0  0  0  0  0  0  0  0  0  0
  -13.6821    3.5326  -24.1777 C   0  0  0  0  0  0  0  0  0  0  0  0
  -12.7304    4.3791  -24.7066 C   0  0  0  0  0  0  0  0  0  0  0  0
  -11.4437    3.8960  -24.8145 C   0  0  0  0  0  0  0  0  0  0  0  0
  -11.1145    2.6109  -24.4088 C   0  0  0  0  0  0  0  0  0  0  0  0
  -13.1464    6.0099  -25.2206 S   0  0  0  0  0  0  0  0  0  0  0  0
  -14.1547    6.7852  -24.0589 N   0  0  0  0  0  0  0  0  0  0  0  0
  -11.8970    6.8375  -25.3615 O   0  0  0  0  0  0  0  0  0  0  0  0
  -13.7898    5.9122  -26.5570 O   0  0  0  0  0  0  0  0  0  0  0  0
  -14.3002    6.1846  -23.2116 H   0  0  0  0  0  0  0  0  0  0  0  0
  -13.8603    7.7451  -23.8329 H   0  0  0  0  0  0  0  0  0  0  0  0
   -8.7342   -1.7895  -22.8529 C   0  0  0  0  0  0  0  0  0  0  0  0
   -8.7788   -3.3148  -22.7746 C   0  0  0  0  0  0  0  0  0  0  0  0
   -7.0303   -0.2664  -21.8224 C   0  0  0  0  0  0  0  0  0  0  0  0
   -6.7360    0.1317  -22.9778 O   0  0  0  0  0  0  0  0  0  0  0  0
   -8.0401   -1.2425  -21.7115 N   0  0  0  0  0  0  0  0  0  0  0  0
   -8.3034   -1.5904  -20.7683 H   0  0  0  0  0  0  0  0  0  0  0  0
   -6.2982    0.3187  -20.6934 C   0  0  0  0  0  0  0  0  0  0  0  0
   -5.2637   -0.5038  -20.2444 O   0  0  0  0  0  0  0  0  0  0  0  0
   -5.6934   -1.4046  -18.9212 S   0  0  0  0  0  0  0  0  0  0  0  0
   -7.2004   -1.4260  -18.8295 O   0  0  0  0  0  0  0  0  0  0  0  0
   -5.1804   -0.8127  -17.6357 O   0  0  0  0  0  0  0  0  0  0  0  0
   -5.3881   -3.5943  -20.3482 C   0  0  0  0  0  0  0  0  0  0  0  0
   -5.1631   -3.0464  -19.0331 N   0  0  0  0  0  0  0  0  0  0  0  0
   -4.1616   -3.1618  -18.7867 H   0  0  0  0  0  0  0  0  0  0  0  0
 31 32  1  0  0  0
 32 28  1  0  0  0
 28 29  2  0  0  0
 28 30  2  0  0  0
 28 27  1  0  0  0
 27 26  1  0  0  0
 26 22  1  0  0  0
 22 23  2  0  0  0
 22 24  1  0  0  0
 24 20  1  0  0  0
 20 21  1  0  0  0
 20  1  1  0  0  0
  1  2  2  0  0  0
  2  3  1  0  0  0
  3  4  1  0  0  0
  3  5  2  0  0  0
  5  6  1  0  0  0
  6  8  1  0  0  0
  8  9  2  0  0  0
  9 10  1  0  0  0
 10 11  2  0  0  0
 11 14  1  0  0  0
 14 15  1  0  0  0
 14 16  2  0  0  0
 14 17  2  0  0  0
 11 12  1  0  0  0
 12 13  2  0  0  0
  6  7  2  0  0  0
  7  1  1  0  0  0
 13  8  1  0  0  0
 32 33  1  0  0  0
 24 25  1  0  0  0
 15 18  1  0  0  0
 15 19  1  0  0  0
M  END
> <minimizedAffinity>
-8.10772

> <CNNscore>
0.8635224104

> <CNNaffinity>
6.4635305405

> <CNN_VS>
5.5814032555

> <CNNaffinity_variance>
0.2324579656

$$$$



 33 34  0  0  0  0  0  0  0  0999 V2000
   -8.1500   -3.8186  -23.7586 C   0  0  0  0  0  0  0  0  0  0  0  0
   -8.8063   -4.7779  -24.5099 C   0  0  0  0  0  0  0  0  0  0  0  0
  -10.0573   -4.5686  -25.0600 C   0  0  0  0  0  0  0  0  0  0  0  0
  -10.8461   -5.8069  -26.0004 Cl  0  0  0  0  0  0  0  0  0  0  0  0
  -10.6652   -3.3365  -24.8380 C   0  0  0  0  0  0  0  0  0  0  0  0
  -10.0464   -2.3513  -24.0947 C   0  0  0  0  0  0  0  0  0  0  0  0
   -8.7907   -2.6150  -23.5658 C   0  0  0  0  0  0  0  0  0  0  0  0
  -10.7243   -1.0757  -23.8879 C   0  0  0  0  0  0  0  0  0  0  0  0
  -10.0092    0.1034  -23.9035 C   0  0  0  0  0  0  0  0  0  0  0  0
  -10.6289    1.3339  -23.7105 C   0  0  0  0  0  0  0  0  0  0  0  0
  -11.9883    1.4217  -23.4952 C   0  0  0  0  0  0  0  0  0  0  0  0
  -12.7040    0.2435  -23.4794 C   0  0  0  0  0  0  0  0  0  0  0  0
  -12.0862   -0.9836  -23.6718 C   0  0  0  0  0  0  0  0  0  0  0  0
  -12.7735    2.9778  -23.2521 S   0  0  0  0  0  0  0  0  0  0  0  0
  -11.6317    4.1788  -22.7820 N   0  0  0  0  0  0  0  0  0  0  0  0
  -13.4118    3.4361  -24.5360 O   0  0  0  0  0  0  0  0  0  0  0  0
  -13.8483    2.7888  -22.2428 O   0  0  0  0  0  0  0  0  0  0  0  0
  -10.6530    3.8022  -22.7813 H   0  0  0  0  0  0  0  0  0  0  0  0
  -11.7280    5.0637  -23.2987 H   0  0  0  0  0  0  0  0  0  0  0  0
   -6.8085   -4.0594  -23.1749 C   0  0  0  0  0  0  0  0  0  0  0  0
   -6.8268   -5.4892  -22.6362 C   0  0  0  0  0  0  0  0  0  0  0  0
   -5.7954   -1.9169  -22.3574 C   0  0  0  0  0  0  0  0  0  0  0  0
   -5.4619   -1.6613  -23.5420 O   0  0  0  0  0  0  0  0  0  0  0  0
   -6.4815   -3.1251  -22.1242 N   0  0  0  0  0  0  0  0  0  0  0  0
   -6.7689   -3.3624  -21.1541 H   0  0  0  0  0  0  0  0  0  0  0  0
   -5.4420   -0.9373  -21.3238 C   0  0  0  0  0  0  0  0  0  0  0  0
   -4.9945   -1.5408  -20.1474 O   0  0  0  0  0  0  0  0  0  0  0  0
   -6.1401   -1.5312  -18.9497 S   0  0  0  0  0  0  0  0  0  0  0  0
   -6.0474   -2.8344  -18.1926 O   0  0  0  0  0  0  0  0  0  0  0  0
   -7.5391   -1.4365  -19.4974 O   0  0  0  0  0  0  0  0  0  0  0  0
   -4.7471    0.5483  -18.1373 C   0  0  0  0  0  0  0  0  0  0  0  0
   -5.8980   -0.2561  -17.8074 N   0  0  0  0  0  0  0  0  0  0  0  0
   -6.7263    0.3623  -17.7155 H   0  0  0  0  0  0  0  0  0  0  0  0
 31 32  1  0  0  0
 32 28  1  0  0  0
 28 29  2  0  0  0
 28 30  2  0  0  0
 28 27  1  0  0  0
 27 26  1  0  0  0
 26 22  1  0  0  0
 22 23  2  0  0  0
 22 24  1  0  0  0
 24 20  1  0  0  0
 20 21  1  0  0  0
 20  1  1  0  0  0
  1  2  2  0  0  0
  2  3  1  0  0  0
  3  4  1  0  0  0
  3  5  2  0  0  0
  5  6  1  0  0  0
  6  8  1  0  0  0
  8  9  2  0  0  0
  9 10  1  0  0  0
 10 11  2  0  0  0
 11 14  1  0  0  0
 14 15  1  0  0  0
 14 16  2  0  0  0
 14 17  2  0  0  0
 11 12  1  0  0  0
 12 13  2  0  0  0
  6  7  2  0  0  0
  7  1  1  0  0  0
 13  8  1  0  0  0
 32 33  1  0  0  0
 24 25  1  0  0  0
 15 18  1  0  0  0
 15 19  1  0  0  0
M  END
> <minimizedAffinity>
-7.33938

> <CNNscore>
0.7317572832

> <CNNaffinity>
6.4234404564

> <CNN_VS>
4.7003993988

> <CNNaffinity_variance>
0.2502403259

$$$$



 33 34  0  0  0  0  0  0  0  0999 V2000
  -10.0056   -1.3531  -22.9989 C   0  0  0  0  0  0  0  0  0  0  0  0
  -11.0282   -2.2107  -22.6324 C   0  0  0  0  0  0  0  0  0  0  0  0
  -12.3590   -1.8367  -22.6503 C   0  0  0  0  0  0  0  0  0  0  0  0
  -13.6142   -2.9518  -22.1802 Cl  0  0  0  0  0  0  0  0  0  0  0  0
  -12.6627   -0.5405  -23.0563 C   0  0  0  0  0  0  0  0  0  0  0  0
  -11.6741    0.3476  -23.4302 C   0  0  0  0  0  0  0  0  0  0  0  0
  -10.3545   -0.0807  -23.3935 C   0  0  0  0  0  0  0  0  0  0  0  0
  -12.0416    1.6969  -23.8471 C   0  0  0  0  0  0  0  0  0  0  0  0
  -11.0885    2.5507  -24.3613 C   0  0  0  0  0  0  0  0  0  0  0  0
  -11.4101    3.8417  -24.7679 C   0  0  0  0  0  0  0  0  0  0  0  0
  -12.7005    4.3189  -24.6717 C   0  0  0  0  0  0  0  0  0  0  0  0
  -13.6540    3.4661  -24.1577 C   0  0  0  0  0  0  0  0  0  0  0  0
  -13.3334    2.1788  -23.7523 C   0  0  0  0  0  0  0  0  0  0  0  0
  -13.1087    5.9514  -25.1868 S   0  0  0  0  0  0  0  0  0  0  0  0
  -14.1358    6.7224  -24.0388 N   0  0  0  0  0  0  0  0  0  0  0  0
  -11.8574    6.7797  -25.3049 O   0  0  0  0  0  0  0  0  0  0  0  0
  -13.7306    5.8580  -26.5337 O   0  0  0  0  0  0  0  0  0  0  0  0
  -14.2947    6.1189  -23.1960 H   0  0  0  0  0  0  0  0  0  0  0  0
  -13.8454    7.6817  -23.8049 H   0  0  0  0  0  0  0  0  0  0  0  0
   -8.5830   -1.7700  -22.9734 C   0  0  0  0  0  0  0  0  0  0  0  0
   -8.5854   -3.2977  -22.9418 C   0  0  0  0  0  0  0  0  0  0  0  0
   -6.6865   -0.4804  -21.9607 C   0  0  0  0  0  0  0  0  0  0  0  0
   -6.2550   -0.2674  -23.1220 O   0  0  0  0  0  0  0  0  0  0  0  0
   -7.8668   -1.2397  -21.8377 N   0  0  0  0  0  0  0  0  0  0  0  0
   -8.2460   -1.4318  -20.8894 H   0  0  0  0  0  0  0  0  0  0  0  0
   -5.9252    0.0789  -20.8380 C   0  0  0  0  0  0  0  0  0  0  0  0
   -5.5032    1.3874  -21.0788 O   0  0  0  0  0  0  0  0  0  0  0  0
   -3.9434    1.6554  -20.5865 S   0  0  0  0  0  0  0  0  0  0  0  0
   -3.0581    0.6098  -21.2214 O   0  0  0  0  0  0  0  0  0  0  0  0
   -3.7838    1.5238  -19.0955 O   0  0  0  0  0  0  0  0  0  0  0  0
   -2.0210    3.1099  -21.6416 C   0  0  0  0  0  0  0  0  0  0  0  0
   -3.3462    3.2012  -21.0798 N   0  0  0  0  0  0  0  0  0  0  0  0
   -3.9699    3.6727  -21.7622 H   0  0  0  0  0  0  0  0  0  0  0  0
 31 32  1  0  0  0
 32 28  1  0  0  0
 28 29  2  0  0  0
 28 30  2  0  0  0
 28 27  1  0  0  0
 27 26  1  0  0  0
 26 22  1  0  0  0
 22 23  2  0  0  0
 22 24  1  0  0  0
 24 20  1  0  0  0
 20 21  1  0  0  0
 20  1  1  0  0  0
  1  2  2  0  0  0
  2  3  1  0  0  0
  3  4  1  0  0  0
  3  5  2  0  0  0
  5  6  1  0  0  0
  6  8  1  0  0  0
  8  9  2  0  0  0
  9 10  1  0  0  0
 10 11  2  0  0  0
 11 14  1  0  0  0
 14 15  1  0  0  0
 14 16  2  0  0  0
 14 17  2  0  0  0
 11 12  1  0  0  0
 12 13  2  0  0  0
  6  7  2  0  0  0
  7  1  1  0  0  0
 13  8  1  0  0  0
 32 33  1  0  0  0
 24 25  1  0  0  0
 15 18  1  0  0  0
 15 19  1  0  0  0
M  END
> <minimizedAffinity>
-7.11163

> <CNNscore>
0.6357420683

> <CNNaffinity>
5.9333744049

> <CNN_VS>
3.7720956802

> <CNNaffinity_variance>
0.0738344043

$$$$



 33 34  0  0  0  0  0  0  0  0999 V2000
   -9.9809   -1.1949  -22.6967 C   0  0  0  0  0  0  0  0  0  0  0  0
  -11.0167   -2.0862  -22.4778 C   0  0  0  0  0  0  0  0  0  0  0  0
  -12.3433   -1.7541  -22.6816 C   0  0  0  0  0  0  0  0  0  0  0  0
  -13.6157   -2.9107  -22.3928 Cl  0  0  0  0  0  0  0  0  0  0  0  0
  -12.6283   -0.4660  -23.1250 C   0  0  0  0  0  0  0  0  0  0  0  0
  -11.6260    0.4548  -23.3559 C   0  0  0  0  0  0  0  0  0  0  0  0
  -10.3116    0.0680  -23.1352 C   0  0  0  0  0  0  0  0  0  0  0  0
  -11.9744    1.7940  -23.8191 C   0  0  0  0  0  0  0  0  0  0  0  0
  -13.2736    2.2472  -23.7252 C   0  0  0  0  0  0  0  0  0  0  0  0
  -13.6345    3.5193  -24.1575 C   0  0  0  0  0  0  0  0  0  0  0  0
  -12.7024    4.3795  -24.6990 C   0  0  0  0  0  0  0  0  0  0  0  0
  -11.4034    3.9274  -24.7933 C   0  0  0  0  0  0  0  0  0  0  0  0
  -11.0434    2.6589  -24.3622 C   0  0  0  0  0  0  0  0  0  0  0  0
  -13.1576    5.9893  -25.2451 S   0  0  0  0  0  0  0  0  0  0  0  0
  -14.1892    6.7606  -24.1014 N   0  0  0  0  0  0  0  0  0  0  0  0
  -11.9289    6.8454  -25.3978 O   0  0  0  0  0  0  0  0  0  0  0  0
  -13.7936    5.8502  -26.5814 O   0  0  0  0  0  0  0  0  0  0  0  0
  -14.3226    6.1727  -23.2433 H   0  0  0  0  0  0  0  0  0  0  0  0
  -13.9199    7.7319  -23.8928 H   0  0  0  0  0  0  0  0  0  0  0  0
   -8.5632   -1.5669  -22.4726 C   0  0  0  0  0  0  0  0  0  0  0  0
   -7.8467   -0.2856  -22.0486 C   0  0  0  0  0  0  0  0  0  0  0  0
   -7.7281   -3.5134  -23.8137 C   0  0  0  0  0  0  0  0  0  0  0  0
   -8.1023   -4.2720  -22.8839 O   0  0  0  0  0  0  0  0  0  0  0  0
   -7.9423   -2.1309  -23.6474 N   0  0  0  0  0  0  0  0  0  0  0  0
   -7.6422   -1.4802  -24.4001 H   0  0  0  0  0  0  0  0  0  0  0  0
   -7.1027   -4.1324  -24.9878 C   0  0  0  0  0  0  0  0  0  0  0  0
   -8.0038   -4.8950  -25.7326 O   0  0  0  0  0  0  0  0  0  0  0  0
   -7.6982   -6.5209  -25.6332 S   0  0  0  0  0  0  0  0  0  0  0  0
   -9.0021   -7.2344  -25.3668 O   0  0  0  0  0  0  0  0  0  0  0  0
   -6.7690   -6.8597  -24.4984 O   0  0  0  0  0  0  0  0  0  0  0  0
   -6.8293   -6.1394  -28.0875 C   0  0  0  0  0  0  0  0  0  0  0  0
   -7.0503   -7.1673  -27.1001 N   0  0  0  0  0  0  0  0  0  0  0  0
   -6.1652   -7.6883  -26.9519 H   0  0  0  0  0  0  0  0  0  0  0  0
 31 32  1  0  0  0
 32 28  1  0  0  0
 28 29  2  0  0  0
 28 30  2  0  0  0
 28 27  1  0  0  0
 27 26  1  0  0  0
 26 22  1  0  0  0
 22 23  2  0  0  0
 22 24  1  0  0  0
 24 20  1  0  0  0
 20 21  1  0  0  0
 20  1  1  0  0  0
  1  2  2  0  0  0
  2  3  1  0  0  0
  3  4  1  0  0  0
  3  5  2  0  0  0
  5  6  1  0  0  0
  6  8  1  0  0  0
  8  9  2  0  0  0
  9 10  1  0  0  0
 10 11  2  0  0  0
 11 14  1  0  0  0
 14 15  1  0  0  0
 14 16  2  0  0  0
 14 17  2  0  0  0
 11 12  1  0  0  0
 12 13  2  0  0  0
  6  7  2  0  0  0
  7  1  1  0  0  0
 13  8  1  0  0  0
 32 33  1  0  0  0
 24 25  1  0  0  0
 15 18  1  0  0  0
 15 19  1  0  0  0
M  END
> <minimizedAffinity>
-6.90994

> <CNNscore>
0.5383503437

> <CNNaffinity>
5.7810926437

> <CNN_VS>
3.1122531891

> <CNNaffinity_variance>
0.0226510800

$$$$



 33 34  0  0  0  0  0  0  0  0999 V2000
   -8.1978   -3.5641  -23.6866 C   0  0  0  0  0  0  0  0  0  0  0  0
   -8.8438   -4.5070  -24.4670 C   0  0  0  0  0  0  0  0  0  0  0  0
  -10.0834   -4.2824  -25.0365 C   0  0  0  0  0  0  0  0  0  0  0  0
  -10.8595   -5.5003  -26.0135 Cl  0  0  0  0  0  0  0  0  0  0  0  0
  -10.6903   -3.0517  -24.8040 C   0  0  0  0  0  0  0  0  0  0  0  0
  -10.0815   -2.0826  -24.0318 C   0  0  0  0  0  0  0  0  0  0  0  0
   -8.8370   -2.3613  -23.4843 C   0  0  0  0  0  0  0  0  0  0  0  0
  -10.7579   -0.8079  -23.8150 C   0  0  0  0  0  0  0  0  0  0  0  0
  -12.1167   -0.7714  -23.5821 C   0  0  0  0  0  0  0  0  0  0  0  0
  -12.7877    0.4288  -23.3710 C   0  0  0  0  0  0  0  0  0  0  0  0
  -12.1164    1.6334  -23.3867 C   0  0  0  0  0  0  0  0  0  0  0  0
  -10.7580    1.5980  -23.6196 C   0  0  0  0  0  0  0  0  0  0  0  0
  -10.0887    0.4012  -23.8300 C   0  0  0  0  0  0  0  0  0  0  0  0
  -12.9640    3.1522  -23.1187 S   0  0  0  0  0  0  0  0  0  0  0  0
  -14.3036    3.3091  -24.1901 N   0  0  0  0  0  0  0  0  0  0  0  0
  -13.4993    3.1993  -21.7126 O   0  0  0  0  0  0  0  0  0  0  0  0
  -11.9782    4.2536  -23.2757 O   0  0  0  0  0  0  0  0  0  0  0  0
  -14.4312    2.4498  -24.7775 H   0  0  0  0  0  0  0  0  0  0  0  0
  -15.1686    3.6182  -23.7258 H   0  0  0  0  0  0  0  0  0  0  0  0
   -6.8685   -3.8213  -23.0823 C   0  0  0  0  0  0  0  0  0  0  0  0
   -6.8275   -5.3140  -22.7582 C   0  0  0  0  0  0  0  0  0  0  0  0
   -5.7688   -3.4469  -20.8607 C   0  0  0  0  0  0  0  0  0  0  0  0
   -5.1826   -4.5498  -21.0023 O   0  0  0  0  0  0  0  0  0  0  0  0
   -6.6353   -3.0369  -21.8931 N   0  0  0  0  0  0  0  0  0  0  0  0
   -7.1338   -2.1296  -21.8022 H   0  0  0  0  0  0  0  0  0  0  0  0
   -5.5001   -2.6851  -19.6358 C   0  0  0  0  0  0  0  0  0  0  0  0
   -4.8875   -1.4579  -19.8943 O   0  0  0  0  0  0  0  0  0  0  0  0
   -5.8543   -0.1683  -19.5080 S   0  0  0  0  0  0  0  0  0  0  0  0
   -5.1010    1.1019  -19.8230 O   0  0  0  0  0  0  0  0  0  0  0  0
   -6.1954   -0.1283  -18.0423 O   0  0  0  0  0  0  0  0  0  0  0  0
   -7.1716    0.6169  -21.6464 C   0  0  0  0  0  0  0  0  0  0  0  0
   -7.3195   -0.1366  -20.4254 N   0  0  0  0  0  0  0  0  0  0  0  0
   -7.6689   -1.0862  -20.6555 H   0  0  0  0  0  0  0  0  0  0  0  0
 31 32  1  0  0  0
 32 28  1  0  0  0
 28 29  2  0  0  0
 28 30  2  0  0  0
 28 27  1  0  0  0
 27 26  1  0  0  0
 26 22  1  0  0  0
 22 23  2  0  0  0
 22 24  1  0  0  0
 24 20  1  0  0  0
 20 21  1  0  0  0
 20  1  1  0  0  0
  1  2  2  0  0  0
  2  3  1  0  0  0
  3  4  1  0  0  0
  3  5  2  0  0  0
  5  6  1  0  0  0
  6  8  1  0  0  0
  8  9  2  0  0  0
  9 10  1  0  0  0
 10 11  2  0  0  0
 11 14  1  0  0  0
 14 15  1  0  0  0
 14 16  2  0  0  0
 14 17  2  0  0  0
 11 12  1  0  0  0
 12 13  2  0  0  0
  6  7  2  0  0  0
  7  1  1  0  0  0
 13  8  1  0  0  0
 32 33  1  0  0  0
 24 25  1  0  0  0
 15 18  1  0  0  0
 15 19  1  0  0  0
M  END
> <minimizedAffinity>
-7.24959

> <CNNscore>
0.5087806582

> <CNNaffinity>
5.9867930412

> <CNN_VS>
3.0459644794

> <CNNaffinity_variance>
0.2191242278

$$$$



 33 34  0  0  0  0  0  0  0  0999 V2000
   -8.2334   -3.2857  -23.2523 C   0  0  0  0  0  0  0  0  0  0  0  0
   -8.7596   -4.2524  -24.0914 C   0  0  0  0  0  0  0  0  0  0  0  0
   -9.9456   -4.0780  -24.7803 C   0  0  0  0  0  0  0  0  0  0  0  0
  -10.5703   -5.3244  -25.8274 Cl  0  0  0  0  0  0  0  0  0  0  0  0
  -10.6233   -2.8745  -24.6098 C   0  0  0  0  0  0  0  0  0  0  0  0
  -10.1345   -1.8832  -23.7826 C   0  0  0  0  0  0  0  0  0  0  0  0
   -8.9392   -2.1113  -23.1152 C   0  0  0  0  0  0  0  0  0  0  0  0
  -10.8817   -0.6385  -23.6347 C   0  0  0  0  0  0  0  0  0  0  0  0
  -10.2190    0.5475  -23.3974 C   0  0  0  0  0  0  0  0  0  0  0  0
  -10.9050    1.7491  -23.2534 C   0  0  0  0  0  0  0  0  0  0  0  0
  -12.2803    1.8003  -23.3428 C   0  0  0  0  0  0  0  0  0  0  0  0
  -12.9436    0.6152  -23.5800 C   0  0  0  0  0  0  0  0  0  0  0  0
  -12.2597   -0.5832  -23.7236 C   0  0  0  0  0  0  0  0  0  0  0  0
  -13.1490    3.3200  -23.1619 S   0  0  0  0  0  0  0  0  0  0  0  0
  -14.4484    3.4262  -24.2878 N   0  0  0  0  0  0  0  0  0  0  0  0
  -13.7373    3.4128  -21.7795 O   0  0  0  0  0  0  0  0  0  0  0  0
  -12.1665    4.4239  -23.3217 O   0  0  0  0  0  0  0  0  0  0  0  0
  -14.5471    2.5452  -24.8480 H   0  0  0  0  0  0  0  0  0  0  0  0
  -15.3327    3.7439  -23.8677 H   0  0  0  0  0  0  0  0  0  0  0  0
   -6.9603   -3.4890  -22.5200 C   0  0  0  0  0  0  0  0  0  0  0  0
   -6.1830   -2.1791  -22.6418 C   0  0  0  0  0  0  0  0  0  0  0  0
   -5.4968   -5.5023  -22.2201 C   0  0  0  0  0  0  0  0  0  0  0  0
   -5.5733   -5.3315  -20.9771 O   0  0  0  0  0  0  0  0  0  0  0  0
   -6.1859   -4.5894  -23.0427 N   0  0  0  0  0  0  0  0  0  0  0  0
   -6.1396   -4.7062  -24.0743 H   0  0  0  0  0  0  0  0  0  0  0  0
   -4.6987   -6.6343  -22.7043 C   0  0  0  0  0  0  0  0  0  0  0  0
   -5.3567   -7.3665  -23.6938 O   0  0  0  0  0  0  0  0  0  0  0  0
   -4.8912   -6.9327  -25.2242 S   0  0  0  0  0  0  0  0  0  0  0  0
   -4.7842   -8.1847  -26.0615 O   0  0  0  0  0  0  0  0  0  0  0  0
   -3.5396   -6.2703  -25.2445 O   0  0  0  0  0  0  0  0  0  0  0  0
   -7.1684   -6.6285  -26.5073 C   0  0  0  0  0  0  0  0  0  0  0  0
   -6.0360   -5.8940  -25.9988 N   0  0  0  0  0  0  0  0  0  0  0  0
   -6.3771   -5.1379  -25.3752 H   0  0  0  0  0  0  0  0  0  0  0  0
 31 32  1  0  0  0
 32 28  1  0  0  0
 28 29  2  0  0  0
 28 30  2  0  0  0
 28 27  1  0  0  0
 27 26  1  0  0  0
 26 22  1  0  0  0
 22 23  2  0  0  0
 22 24  1  0  0  0
 24 20  1  0  0  0
 20 21  1  0  0  0
 20  1  1  0  0  0
  1  2  2  0  0  0
  2  3  1  0  0  0
  3  4  1  0  0  0
  3  5  2  0  0  0
  5  6  1  0  0  0
  6  8  1  0  0  0
  8  9  2  0  0  0
  9 10  1  0  0  0
 10 11  2  0  0  0
 11 14  1  0  0  0
 14 15  1  0  0  0
 14 16  2  0  0  0
 14 17  2  0  0  0
 11 12  1  0  0  0
 12 13  2  0  0  0
  6  7  2  0  0  0
  7  1  1  0  0  0
 13  8  1  0  0  0
 32 33  1  0  0  0
 24 25  1  0  0  0
 15 18  1  0  0  0
 15 19  1  0  0  0
M  END
> <minimizedAffinity>
-6.97730

> <CNNscore>
0.4471615255

> <CNNaffinity>
5.7308797836

> <CNN_VS>
2.5626289845

> <CNNaffinity_variance>
0.0894471332

$$$$



 33 34  0  0  0  0  0  0  0  0999 V2000
   -8.1191   -3.6537  -23.3151 C   0  0  0  0  0  0  0  0  0  0  0  0
   -8.6562   -4.5705  -24.2019 C   0  0  0  0  0  0  0  0  0  0  0  0
   -9.8090   -4.3238  -24.9241 C   0  0  0  0  0  0  0  0  0  0  0  0
  -10.4491   -5.5092  -26.0311 Cl  0  0  0  0  0  0  0  0  0  0  0  0
  -10.4408   -3.0978  -24.7379 C   0  0  0  0  0  0  0  0  0  0  0  0
   -9.9395   -2.1545  -23.8633 C   0  0  0  0  0  0  0  0  0  0  0  0
   -8.7789   -2.4545  -23.1640 C   0  0  0  0  0  0  0  0  0  0  0  0
  -10.6381   -0.8837  -23.7006 C   0  0  0  0  0  0  0  0  0  0  0  0
   -9.9263    0.2865  -23.5389 C   0  0  0  0  0  0  0  0  0  0  0  0
  -10.5654    1.5123  -23.3828 C   0  0  0  0  0  0  0  0  0  0  0  0
  -11.9414    1.6043  -23.3839 C   0  0  0  0  0  0  0  0  0  0  0  0
  -12.6538    0.4351  -23.5454 C   0  0  0  0  0  0  0  0  0  0  0  0
  -12.0167   -0.7873  -23.7011 C   0  0  0  0  0  0  0  0  0  0  0  0
  -12.7509    3.1545  -23.1877 S   0  0  0  0  0  0  0  0  0  0  0  0
  -12.8895    3.5724  -21.5224 N   0  0  0  0  0  0  0  0  0  0  0  0
  -11.9537    4.2382  -23.8629 O   0  0  0  0  0  0  0  0  0  0  0  0
  -14.0720    3.0631  -23.8629 O   0  0  0  0  0  0  0  0  0  0  0  0
  -12.4136    2.8693  -20.9068 H   0  0  0  0  0  0  0  0  0  0  0  0
  -12.6185    4.5439  -21.3174 H   0  0  0  0  0  0  0  0  0  0  0  0
   -6.8819   -3.9344  -22.5476 C   0  0  0  0  0  0  0  0  0  0  0  0
   -6.1135   -2.6155  -22.4776 C   0  0  0  0  0  0  0  0  0  0  0  0
   -5.3497   -5.9135  -22.4046 C   0  0  0  0  0  0  0  0  0  0  0  0
   -5.4305   -5.8437  -21.1521 O   0  0  0  0  0  0  0  0  0  0  0  0
   -6.0708   -4.9630  -23.1540 N   0  0  0  0  0  0  0  0  0  0  0  0
   -6.0217   -4.9968  -24.1915 H   0  0  0  0  0  0  0  0  0  0  0  0
   -4.5137   -6.9759  -22.9750 C   0  0  0  0  0  0  0  0  0  0  0  0
   -3.7944   -6.5472  -24.0917 O   0  0  0  0  0  0  0  0  0  0  0  0
   -2.2243   -7.0777  -24.0814 S   0  0  0  0  0  0  0  0  0  0  0  0
   -1.5752   -6.6171  -22.7981 O   0  0  0  0  0  0  0  0  0  0  0  0
   -1.4189   -6.5023  -25.2156 O   0  0  0  0  0  0  0  0  0  0  0  0
   -2.1182   -9.3051  -25.4785 C   0  0  0  0  0  0  0  0  0  0  0  0
   -2.1040   -8.8019  -24.1268 N   0  0  0  0  0  0  0  0  0  0  0  0
   -1.2572   -9.1575  -23.6436 H   0  0  0  0  0  0  0  0  0  0  0  0
 31 32  1  0  0  0
 32 28  1  0  0  0
 28 29  2  0  0  0
 28 30  2  0  0  0
 28 27  1  0  0  0
 27 26  1  0  0  0
 26 22  1  0  0  0
 22 23  2  0  0  0
 22 24  1  0  0  0
 24 20  1  0  0  0
 20 21  1  0  0  0
 20  1  1  0  0  0
  1  2  2  0  0  0
  2  3  1  0  0  0
  3  4  1  0  0  0
  3  5  2  0  0  0
  5  6  1  0  0  0
  6  8  1  0  0  0
  8  9  2  0  0  0
  9 10  1  0  0  0
 10 11  2  0  0  0
 11 14  1  0  0  0
 14 15  1  0  0  0
 14 16  2  0  0  0
 14 17  2  0  0  0
 11 12  1  0  0  0
 12 13  2  0  0  0
  6  7  2  0  0  0
  7  1  1  0  0  0
 13  8  1  0  0  0
 32 33  1  0  0  0
 24 25  1  0  0  0
 15 18  1  0  0  0
 15 19  1  0  0  0
M  END
> <minimizedAffinity>
-6.73498

> <CNNscore>
0.4118808210

> <CNNaffinity>
5.5898981094

> <CNN_VS>
2.3023717403

> <CNNaffinity_variance>
0.0791879147

$$$$



 33 34  0  0  0  0  0  0  0  0999 V2000
   -9.9610   -2.6456  -23.6479 C   0  0  0  0  0  0  0  0  0  0  0  0
  -11.1454   -3.0518  -23.0585 C   0  0  0  0  0  0  0  0  0  0  0  0
  -12.1694   -2.1730  -22.7573 C   0  0  0  0  0  0  0  0  0  0  0  0
  -13.6452   -2.7305  -22.0147 Cl  0  0  0  0  0  0  0  0  0  0  0  0
  -11.9825   -0.8291  -23.0671 C   0  0  0  0  0  0  0  0  0  0  0  0
  -10.8168   -0.3807  -23.6554 C   0  0  0  0  0  0  0  0  0  0  0  0
   -9.8215   -1.3062  -23.9361 C   0  0  0  0  0  0  0  0  0  0  0  0
  -10.6665    1.0384  -23.9602 C   0  0  0  0  0  0  0  0  0  0  0  0
  -11.6320    1.9412  -23.5667 C   0  0  0  0  0  0  0  0  0  0  0  0
  -11.5148    3.2997  -23.8424 C   0  0  0  0  0  0  0  0  0  0  0  0
  -10.4234    3.7977  -24.5229 C   0  0  0  0  0  0  0  0  0  0  0  0
   -9.4578    2.8959  -24.9167 C   0  0  0  0  0  0  0  0  0  0  0  0
   -9.5745    1.5412  -24.6418 C   0  0  0  0  0  0  0  0  0  0  0  0
  -10.2735    5.5161  -24.8711 S   0  0  0  0  0  0  0  0  0  0  0  0
   -9.5353    5.7730  -26.4062 N   0  0  0  0  0  0  0  0  0  0  0  0
  -11.6372    6.1521  -24.9110 O   0  0  0  0  0  0  0  0  0  0  0  0
   -9.5057    6.1370  -23.7599 O   0  0  0  0  0  0  0  0  0  0  0  0
   -9.3574    4.8681  -26.9055 H   0  0  0  0  0  0  0  0  0  0  0  0
  -10.0222    6.4701  -26.9860 H   0  0  0  0  0  0  0  0  0  0  0  0
   -8.8720   -3.6011  -23.9638 C   0  0  0  0  0  0  0  0  0  0  0  0
   -7.5771   -2.7898  -23.9614 C   0  0  0  0  0  0  0  0  0  0  0  0
   -8.7057   -5.6022  -25.4647 C   0  0  0  0  0  0  0  0  0  0  0  0
   -8.2084   -6.2408  -24.5030 O   0  0  0  0  0  0  0  0  0  0  0  0
   -9.0577   -4.2573  -25.2361 N   0  0  0  0  0  0  0  0  0  0  0  0
   -9.4703   -3.7051  -26.0138 H   0  0  0  0  0  0  0  0  0  0  0  0
   -8.8755   -6.3114  -26.7380 C   0  0  0  0  0  0  0  0  0  0  0  0
   -7.8385   -7.2111  -26.9900 O   0  0  0  0  0  0  0  0  0  0  0  0
   -7.0758   -6.9178  -28.4319 S   0  0  0  0  0  0  0  0  0  0  0  0
   -6.4771   -5.5326  -28.3801 O   0  0  0  0  0  0  0  0  0  0  0  0
   -8.0275   -6.9449  -29.5980 O   0  0  0  0  0  0  0  0  0  0  0  0
   -4.6817   -7.8275  -27.8275 C   0  0  0  0  0  0  0  0  0  0  0  0
   -5.7829   -8.0242  -28.7380 N   0  0  0  0  0  0  0  0  0  0  0  0
   -6.0849   -9.0160  -28.6925 H   0  0  0  0  0  0  0  0  0  0  0  0
 31 32  1  0  0  0
 32 28  1  0  0  0
 28 29  2  0  0  0
 28 30  2  0  0  0
 28 27  1  0  0  0
 27 26  1  0  0  0
 26 22  1  0  0  0
 22 23  2  0  0  0
 22 24  1  0  0  0
 24 20  1  0  0  0
 20 21  1  0  0  0
 20  1  1  0  0  0
  1  2  2  0  0  0
  2  3  1  0  0  0
  3  4  1  0  0  0
  3  5  2  0  0  0
  5  6  1  0  0  0
  6  8  1  0  0  0
  8  9  2  0  0  0
  9 10  1  0  0  0
 10 11  2  0  0  0
 11 14  1  0  0  0
 14 15  1  0  0  0
 14 16  2  0  0  0
 14 17  2  0  0  0
 11 12  1  0  0  0
 12 13  2  0  0  0
  6  7  2  0  0  0
  7  1  1  0  0  0
 13  8  1  0  0  0
 32 33  1  0  0  0
 24 25  1  0  0  0
 15 18  1  0  0  0
 15 19  1  0  0  0
M  END
> <minimizedAffinity>
-6.46776

> <CNNscore>
0.3748376667

> <CNNaffinity>
5.4013915062

> <CNN_VS>
2.0246450901

> <CNNaffinity_variance>
0.1452372521

$$$$
