


 27 31  0  0  0  0  0  0  0  0999 V2000
   -5.1987   -4.3748  -20.6464 O   0  0  0  0  0  0  0  0  0  0  0  0
   -5.7696   -3.6512  -21.5004 C   0  0  0  0  0  0  0  0  0  0  0  0
   -6.2475   -4.1088  -22.7613 N   0  0  0  0  0  0  0  0  0  0  0  0
   -7.2590   -3.1531  -23.2300 C   0  0  0  0  0  0  0  0  0  0  0  0
   -8.5285   -3.5235  -22.5137 C   0  0  0  0  0  0  0  0  0  0  0  0
   -9.7531   -2.9393  -23.1379 C   0  0  0  0  0  0  0  0  0  0  0  0
   -9.7384   -3.0267  -24.5444 O   0  0  0  0  0  0  0  0  0  0  0  0
   -8.6014   -3.0030  -25.3107 C   0  0  0  0  0  0  0  0  0  0  0  0
   -8.7032   -2.9179  -26.6862 C   0  0  0  0  0  0  0  0  0  0  0  0
   -7.5424   -2.8954  -27.4498 C   0  0  0  0  0  0  0  0  0  0  0  0
   -6.3732   -2.9576  -26.8156 N   0  0  0  0  0  0  0  0  0  0  0  0
   -6.2585   -3.0408  -25.4729 C   0  0  0  0  0  0  0  0  0  0  0  0
   -7.3739   -3.0663  -24.6751 C   0  0  0  0  0  0  0  0  0  0  0  0
   -6.7002   -1.9032  -22.6013 C   0  0  0  0  0  0  0  0  0  0  0  0
   -6.8215   -0.7743  -23.1116 O   0  0  0  0  0  0  0  0  0  0  0  0
   -6.0506   -2.2551  -21.3870 N   0  0  0  0  0  0  0  0  0  0  0  0
   -5.9908   -4.9470  -23.3200 H   0  0  0  0  0  0  0  0  0  0  0  0
   -5.7801   -1.3499  -20.3326 C   0  0  0  0  0  0  0  0  0  0  0  0
   -6.4833   -1.4036  -19.1223 C   0  0  0  0  0  0  0  0  0  0  0  0
   -6.2760   -0.5846  -18.1023 N   0  0  0  0  0  0  0  0  0  0  0  0
   -5.3420    0.3707  -18.1948 C   0  0  0  0  0  0  0  0  0  0  0  0
   -4.5922    0.5091  -19.3470 C   0  0  0  0  0  0  0  0  0  0  0  0
   -3.6248    1.4830  -19.4702 C   0  0  0  0  0  0  0  0  0  0  0  0
   -2.8890    1.6120  -20.6129 C   0  0  0  0  0  0  0  0  0  0  0  0
   -3.0835    0.7776  -21.6849 C   0  0  0  0  0  0  0  0  0  0  0  0
   -4.0590   -0.2050  -21.5618 C   0  0  0  0  0  0  0  0  0  0  0  0
   -4.8198   -0.3619  -20.4188 C   0  0  0  0  0  0  0  0  0  0  0  0
  1  2  2  0  0  0
  2  3  1  0  0  0
  4  3  1  0  0  0
  4  5  1  0  0  0
  5  6  1  0  0  0
  6  7  1  0  0  0
  7  8  1  0  0  0
  8  9  2  0  0  0
  9 10  1  0  0  0
 10 11  2  0  0  0
 11 12  1  0  0  0
 12 13  2  0  0  0
  4 14  1  0  0  0
 14 15  2  0  0  0
 14 16  1  0  0  0
 16 18  1  0  0  0
 18 19  2  0  0  0
 19 20  1  0  0  0
 20 21  2  0  0  0
 21 22  1  0  0  0
 22 23  2  0  0  0
 23 24  1  0  0  0
 24 25  2  0  0  0
 25 26  1  0  0  0
 26 27  2  0  0  0
 16  2  1  0  0  0
 27 18  1  0  0  0
 13  4  1  0  0  0
 27 22  1  0  0  0
 13  8  1  0  0  0
  3 17  1  0  0  0
M  END
> <minimizedAffinity>
-7.56286

> <CNNscore>
0.6859658957

> <CNNaffinity>
5.6039547920

> <CNN_VS>
3.8441219330

> <CNNaffinity_variance>
0.2837896943

$$$$



 27 31  0  0  0  0  0  0  0  0999 V2000
   -8.5693   -0.5322  -21.6087 O   0  0  0  0  0  0  0  0  0  0  0  0
   -9.4579    0.0097  -22.3128 C   0  0  0  0  0  0  0  0  0  0  0  0
   -9.9424    1.3358  -22.1272 N   0  0  0  0  0  0  0  0  0  0  0  0
  -10.5587    1.7674  -23.3882 C   0  0  0  0  0  0  0  0  0  0  0  0
   -9.4195    2.2105  -24.2645 C   0  0  0  0  0  0  0  0  0  0  0  0
   -9.8540    3.0472  -25.4230 C   0  0  0  0  0  0  0  0  0  0  0  0
  -10.8241    4.0049  -25.0657 O   0  0  0  0  0  0  0  0  0  0  0  0
  -11.7450    3.8388  -24.0633 C   0  0  0  0  0  0  0  0  0  0  0  0
  -12.7630    4.7603  -23.9078 C   0  0  0  0  0  0  0  0  0  0  0  0
  -13.6887    4.5792  -22.8871 C   0  0  0  0  0  0  0  0  0  0  0  0
  -13.5514    3.5159  -22.0974 N   0  0  0  0  0  0  0  0  0  0  0  0
  -12.5623    2.6076  -22.2376 C   0  0  0  0  0  0  0  0  0  0  0  0
  -11.6242    2.7413  -23.2291 C   0  0  0  0  0  0  0  0  0  0  0  0
  -11.0453    0.4271  -23.8745 C   0  0  0  0  0  0  0  0  0  0  0  0
  -12.0731    0.2872  -24.5627 O   0  0  0  0  0  0  0  0  0  0  0  0
  -10.1489   -0.5766  -23.4171 N   0  0  0  0  0  0  0  0  0  0  0  0
   -9.9103    1.9591  -21.2959 H   0  0  0  0  0  0  0  0  0  0  0  0
  -10.0257   -1.8633  -23.9948 C   0  0  0  0  0  0  0  0  0  0  0  0
  -11.0197   -2.8370  -23.8338 C   0  0  0  0  0  0  0  0  0  0  0  0
  -10.9600   -4.0560  -24.3483 N   0  0  0  0  0  0  0  0  0  0  0  0
   -9.8964   -4.4200  -25.0760 C   0  0  0  0  0  0  0  0  0  0  0  0
   -8.8595   -3.5333  -25.2946 C   0  0  0  0  0  0  0  0  0  0  0  0
   -7.7530   -3.8806  -26.0391 C   0  0  0  0  0  0  0  0  0  0  0  0
   -6.7333   -2.9975  -26.2495 C   0  0  0  0  0  0  0  0  0  0  0  0
   -6.7690   -1.7288  -25.7277 C   0  0  0  0  0  0  0  0  0  0  0  0
   -7.8846   -1.3773  -24.9765 C   0  0  0  0  0  0  0  0  0  0  0  0
   -8.9331   -2.2477  -24.7461 C   0  0  0  0  0  0  0  0  0  0  0  0
  1  2  2  0  0  0
  2  3  1  0  0  0
  4  3  1  0  0  0
  4  5  1  0  0  0
  5  6  1  0  0  0
  6  7  1  0  0  0
  7  8  1  0  0  0
  8  9  2  0  0  0
  9 10  1  0  0  0
 10 11  2  0  0  0
 11 12  1  0  0  0
 12 13  2  0  0  0
  4 14  1  0  0  0
 14 15  2  0  0  0
 14 16  1  0  0  0
 16 18  1  0  0  0
 18 19  2  0  0  0
 19 20  1  0  0  0
 20 21  2  0  0  0
 21 22  1  0  0  0
 22 23  2  0  0  0
 23 24  1  0  0  0
 24 25  2  0  0  0
 25 26  1  0  0  0
 26 27  2  0  0  0
 16  2  1  0  0  0
 27 18  1  0  0  0
 13  4  1  0  0  0
 27 22  1  0  0  0
 13  8  1  0  0  0
  3 17  1  0  0  0
M  END
> <minimizedAffinity>
-6.71585

> <CNNscore>
0.5341554880

> <CNNaffinity>
5.2087707520

> <CNN_VS>
2.7822935581

> <CNNaffinity_variance>
0.1936140954

$$$$



 27 31  0  0  0  0  0  0  0  0999 V2000
   -8.2517   -0.0162  -21.0709 O   0  0  0  0  0  0  0  0  0  0  0  0
   -8.1052   -0.5752  -22.1867 C   0  0  0  0  0  0  0  0  0  0  0  0
   -6.9627   -1.3340  -22.5695 N   0  0  0  0  0  0  0  0  0  0  0  0
   -7.3594   -2.2116  -23.6779 C   0  0  0  0  0  0  0  0  0  0  0  0
   -8.0389   -3.3906  -23.0374 C   0  0  0  0  0  0  0  0  0  0  0  0
   -8.1593   -4.5702  -23.9456 C   0  0  0  0  0  0  0  0  0  0  0  0
   -6.9832   -4.8068  -24.6849 O   0  0  0  0  0  0  0  0  0  0  0  0
   -6.1058   -3.8296  -25.0795 C   0  0  0  0  0  0  0  0  0  0  0  0
   -5.0776   -4.1415  -25.9484 C   0  0  0  0  0  0  0  0  0  0  0  0
   -4.1958   -3.1409  -26.3392 C   0  0  0  0  0  0  0  0  0  0  0  0
   -4.3832   -1.9152  -25.8538 N   0  0  0  0  0  0  0  0  0  0  0  0
   -5.3832   -1.5960  -25.0046 C   0  0  0  0  0  0  0  0  0  0  0  0
   -6.2795   -2.5473  -24.5892 C   0  0  0  0  0  0  0  0  0  0  0  0
   -8.4113   -1.3310  -24.3005 C   0  0  0  0  0  0  0  0  0  0  0  0
   -8.6523   -1.3214  -25.5217 O   0  0  0  0  0  0  0  0  0  0  0  0
   -9.0305   -0.5659  -23.2751 N   0  0  0  0  0  0  0  0  0  0  0  0
   -5.9933   -1.3361  -22.1938 H   0  0  0  0  0  0  0  0  0  0  0  0
  -10.3042    0.0418  -23.3882 C   0  0  0  0  0  0  0  0  0  0  0  0
  -10.4446    1.3850  -23.7601 C   0  0  0  0  0  0  0  0  0  0  0  0
  -11.6073    2.0077  -23.8813 N   0  0  0  0  0  0  0  0  0  0  0  0
  -12.7457    1.3446  -23.6411 C   0  0  0  0  0  0  0  0  0  0  0  0
  -12.7173    0.0148  -23.2673 C   0  0  0  0  0  0  0  0  0  0  0  0
  -13.8728   -0.6922  -23.0137 C   0  0  0  0  0  0  0  0  0  0  0  0
  -13.8344   -2.0061  -22.6448 C   0  0  0  0  0  0  0  0  0  0  0  0
  -12.6439   -2.6753  -22.5111 C   0  0  0  0  0  0  0  0  0  0  0  0
  -11.4777   -1.9633  -22.7666 C   0  0  0  0  0  0  0  0  0  0  0  0
  -11.4830   -0.6333  -23.1423 C   0  0  0  0  0  0  0  0  0  0  0  0
  1  2  2  0  0  0
  2  3  1  0  0  0
  4  3  1  0  0  0
  4  5  1  0  0  0
  5  6  1  0  0  0
  6  7  1  0  0  0
  7  8  1  0  0  0
  8  9  2  0  0  0
  9 10  1  0  0  0
 10 11  2  0  0  0
 11 12  1  0  0  0
 12 13  2  0  0  0
  4 14  1  0  0  0
 14 15  2  0  0  0
 14 16  1  0  0  0
 16 18  1  0  0  0
 18 19  2  0  0  0
 19 20  1  0  0  0
 20 21  2  0  0  0
 21 22  1  0  0  0
 22 23  2  0  0  0
 23 24  1  0  0  0
 24 25  2  0  0  0
 25 26  1  0  0  0
 26 27  2  0  0  0
 16  2  1  0  0  0
 27 18  1  0  0  0
 13  4  1  0  0  0
 27 22  1  0  0  0
 13  8  1  0  0  0
  3 17  1  0  0  0
M  END
> <minimizedAffinity>
-6.75430

> <CNNscore>
0.4858540297

> <CNNaffinity>
5.4129076004

> <CNN_VS>
2.6298830509

> <CNNaffinity_variance>
0.2662725449

$$$$



 27 31  0  0  0  0  0  0  0  0999 V2000
   -8.4725    0.3171  -26.0220 O   0  0  0  0  0  0  0  0  0  0  0  0
   -8.1246    0.6033  -24.8490 C   0  0  0  0  0  0  0  0  0  0  0  0
   -6.7764    0.7632  -24.4195 N   0  0  0  0  0  0  0  0  0  0  0  0
   -6.7912    1.5607  -23.1866 C   0  0  0  0  0  0  0  0  0  0  0  0
   -6.9132    2.9920  -23.6320 C   0  0  0  0  0  0  0  0  0  0  0  0
   -6.5488    3.9762  -22.5692 C   0  0  0  0  0  0  0  0  0  0  0  0
   -5.3911    3.6017  -21.8583 O   0  0  0  0  0  0  0  0  0  0  0  0
   -5.0019    2.3053  -21.6382 C   0  0  0  0  0  0  0  0  0  0  0  0
   -3.9497    2.0412  -20.7823 C   0  0  0  0  0  0  0  0  0  0  0  0
   -3.5662    0.7226  -20.5693 C   0  0  0  0  0  0  0  0  0  0  0  0
   -4.2362   -0.2360  -21.2059 N   0  0  0  0  0  0  0  0  0  0  0  0
   -5.2660    0.0071  -22.0445 C   0  0  0  0  0  0  0  0  0  0  0  0
   -5.6827    1.2909  -22.2879 C   0  0  0  0  0  0  0  0  0  0  0  0
   -8.1221    1.1124  -22.6413 C   0  0  0  0  0  0  0  0  0  0  0  0
   -8.3636    1.0309  -21.4229 O   0  0  0  0  0  0  0  0  0  0  0  0
   -8.9870    0.8222  -23.7314 N   0  0  0  0  0  0  0  0  0  0  0  0
   -5.8874    0.4194  -24.8346 H   0  0  0  0  0  0  0  0  0  0  0  0
  -10.3995    0.7825  -23.6438 C   0  0  0  0  0  0  0  0  0  0  0  0
  -11.1812    1.9179  -23.8926 C   0  0  0  0  0  0  0  0  0  0  0  0
  -12.5036    1.9423  -23.8251 N   0  0  0  0  0  0  0  0  0  0  0  0
  -13.1743    0.8295  -23.5009 C   0  0  0  0  0  0  0  0  0  0  0  0
  -12.4971   -0.3453  -23.2357 C   0  0  0  0  0  0  0  0  0  0  0  0
  -13.1611   -1.5052  -22.8995 C   0  0  0  0  0  0  0  0  0  0  0  0
  -12.4830   -2.6612  -22.6391 C   0  0  0  0  0  0  0  0  0  0  0  0
  -11.1131   -2.7144  -22.7011 C   0  0  0  0  0  0  0  0  0  0  0  0
  -10.4423   -1.5451  -23.0401 C   0  0  0  0  0  0  0  0  0  0  0  0
  -11.0994   -0.3596  -23.3099 C   0  0  0  0  0  0  0  0  0  0  0  0
  1  2  2  0  0  0
  2  3  1  0  0  0
  4  3  1  0  0  0
  4  5  1  0  0  0
  5  6  1  0  0  0
  6  7  1  0  0  0
  7  8  1  0  0  0
  8  9  2  0  0  0
  9 10  1  0  0  0
 10 11  2  0  0  0
 11 12  1  0  0  0
 12 13  2  0  0  0
  4 14  1  0  0  0
 14 15  2  0  0  0
 14 16  1  0  0  0
 16 18  1  0  0  0
 18 19  2  0  0  0
 19 20  1  0  0  0
 20 21  2  0  0  0
 21 22  1  0  0  0
 22 23  2  0  0  0
 23 24  1  0  0  0
 24 25  2  0  0  0
 25 26  1  0  0  0
 26 27  2  0  0  0
 16  2  1  0  0  0
 27 18  1  0  0  0
 13  4  1  0  0  0
 27 22  1  0  0  0
 13  8  1  0  0  0
  3 17  1  0  0  0
M  END
> <minimizedAffinity>
-7.24845

> <CNNscore>
0.4507490993

> <CNNaffinity>
5.2279806137

> <CNN_VS>
2.3565075397

> <CNNaffinity_variance>
0.1899815053

$$$$



 27 31  0  0  0  0  0  0  0  0999 V2000
   -7.3450   -4.9328  -22.6339 O   0  0  0  0  0  0  0  0  0  0  0  0
   -8.2322   -4.2828  -23.2416 C   0  0  0  0  0  0  0  0  0  0  0  0
   -9.1290   -3.3640  -22.6258 N   0  0  0  0  0  0  0  0  0  0  0  0
   -9.6368   -2.4660  -23.6707 C   0  0  0  0  0  0  0  0  0  0  0  0
   -8.5666   -1.4278  -23.8673 C   0  0  0  0  0  0  0  0  0  0  0  0
   -9.0469   -0.2109  -24.5879 C   0  0  0  0  0  0  0  0  0  0  0  0
  -10.3114    0.2202  -24.1394 O   0  0  0  0  0  0  0  0  0  0  0  0
  -11.2839   -0.6112  -23.6462 C   0  0  0  0  0  0  0  0  0  0  0  0
  -12.5493   -0.1147  -23.3978 C   0  0  0  0  0  0  0  0  0  0  0  0
  -13.5246   -0.9690  -22.8975 C   0  0  0  0  0  0  0  0  0  0  0  0
  -13.1924   -2.2396  -22.6777 N   0  0  0  0  0  0  0  0  0  0  0  0
  -11.9606   -2.7386  -22.9158 C   0  0  0  0  0  0  0  0  0  0  0  0
  -10.9636   -1.9365  -23.4095 C   0  0  0  0  0  0  0  0  0  0  0  0
   -9.5963   -3.4234  -24.8333 C   0  0  0  0  0  0  0  0  0  0  0  0
  -10.4040   -3.3765  -25.7794 O   0  0  0  0  0  0  0  0  0  0  0  0
   -8.5181   -4.3292  -24.6405 N   0  0  0  0  0  0  0  0  0  0  0  0
   -9.4274   -3.2691  -21.6345 H   0  0  0  0  0  0  0  0  0  0  0  0
   -7.9086   -5.0796  -25.6747 C   0  0  0  0  0  0  0  0  0  0  0  0
   -8.3313   -6.3788  -25.9841 C   0  0  0  0  0  0  0  0  0  0  0  0
   -7.7999   -7.1287  -26.9378 N   0  0  0  0  0  0  0  0  0  0  0  0
   -6.7909   -6.6499  -27.6766 C   0  0  0  0  0  0  0  0  0  0  0  0
   -6.2988   -5.3785  -27.4517 C   0  0  0  0  0  0  0  0  0  0  0  0
   -5.2613   -4.8602  -28.1962 C   0  0  0  0  0  0  0  0  0  0  0  0
   -4.7818   -3.6027  -27.9663 C   0  0  0  0  0  0  0  0  0  0  0  0
   -5.3132   -2.8048  -26.9845 C   0  0  0  0  0  0  0  0  0  0  0  0
   -6.3597   -3.3266  -26.2329 C   0  0  0  0  0  0  0  0  0  0  0  0
   -6.8678   -4.5948  -26.4412 C   0  0  0  0  0  0  0  0  0  0  0  0
  1  2  2  0  0  0
  2  3  1  0  0  0
  4  3  1  0  0  0
  4  5  1  0  0  0
  5  6  1  0  0  0
  6  7  1  0  0  0
  7  8  1  0  0  0
  8  9  2  0  0  0
  9 10  1  0  0  0
 10 11  2  0  0  0
 11 12  1  0  0  0
 12 13  2  0  0  0
  4 14  1  0  0  0
 14 15  2  0  0  0
 14 16  1  0  0  0
 16 18  1  0  0  0
 18 19  2  0  0  0
 19 20  1  0  0  0
 20 21  2  0  0  0
 21 22  1  0  0  0
 22 23  2  0  0  0
 23 24  1  0  0  0
 24 25  2  0  0  0
 25 26  1  0  0  0
 26 27  2  0  0  0
 16  2  1  0  0  0
 27 18  1  0  0  0
 13  4  1  0  0  0
 27 22  1  0  0  0
 13  8  1  0  0  0
  3 17  1  0  0  0
M  END
> <minimizedAffinity>
-6.90514

> <CNNscore>
0.3989496231

> <CNNaffinity>
5.2094831467

> <CNN_VS>
2.0783214569

> <CNNaffinity_variance>
0.3188855946

$$$$



 27 31  0  0  0  0  0  0  0  0999 V2000
   -7.9301   -1.9147  -24.5361 O   0  0  0  0  0  0  0  0  0  0  0  0
   -7.2219   -1.9591  -23.4991 C   0  0  0  0  0  0  0  0  0  0  0  0
   -6.8266   -0.8223  -22.7381 N   0  0  0  0  0  0  0  0  0  0  0  0
   -6.4705   -1.2873  -21.3915 C   0  0  0  0  0  0  0  0  0  0  0  0
   -7.7744   -1.4372  -20.6571 C   0  0  0  0  0  0  0  0  0  0  0  0
   -7.6137   -1.5137  -19.1742 C   0  0  0  0  0  0  0  0  0  0  0  0
   -6.6816   -0.5787  -18.6815 O   0  0  0  0  0  0  0  0  0  0  0  0
   -5.5941   -0.1248  -19.3829 C   0  0  0  0  0  0  0  0  0  0  0  0
   -4.6459    0.6551  -18.7487 C   0  0  0  0  0  0  0  0  0  0  0  0
   -3.5494    1.1082  -19.4724 C   0  0  0  0  0  0  0  0  0  0  0  0
   -3.4613    0.7673  -20.7566 N   0  0  0  0  0  0  0  0  0  0  0  0
   -4.3797    0.0060  -21.3891 C   0  0  0  0  0  0  0  0  0  0  0  0
   -5.4795   -0.4658  -20.7191 C   0  0  0  0  0  0  0  0  0  0  0  0
   -5.9616   -2.6589  -21.7512 C   0  0  0  0  0  0  0  0  0  0  0  0
   -5.0565   -3.2342  -21.1191 O   0  0  0  0  0  0  0  0  0  0  0  0
   -6.6801   -3.1291  -22.8839 N   0  0  0  0  0  0  0  0  0  0  0  0
   -6.7705    0.1823  -22.9994 H   0  0  0  0  0  0  0  0  0  0  0  0
   -6.7900   -4.4914  -23.2529 C   0  0  0  0  0  0  0  0  0  0  0  0
   -7.5093   -5.4061  -22.4729 C   0  0  0  0  0  0  0  0  0  0  0  0
   -7.6460   -6.6905  -22.7658 N   0  0  0  0  0  0  0  0  0  0  0  0
   -7.0744   -7.1858  -23.8708 C   0  0  0  0  0  0  0  0  0  0  0  0
   -6.3421   -6.3670  -24.7089 C   0  0  0  0  0  0  0  0  0  0  0  0
   -5.7428   -6.8495  -25.8524 C   0  0  0  0  0  0  0  0  0  0  0  0
   -5.0210   -6.0325  -26.6742 C   0  0  0  0  0  0  0  0  0  0  0  0
   -4.8628   -4.6984  -26.3945 C   0  0  0  0  0  0  0  0  0  0  0  0
   -5.4668   -4.2106  -25.2414 C   0  0  0  0  0  0  0  0  0  0  0  0
   -6.2041   -5.0113  -24.3897 C   0  0  0  0  0  0  0  0  0  0  0  0
  1  2  2  0  0  0
  2  3  1  0  0  0
  4  3  1  0  0  0
  4  5  1  0  0  0
  5  6  1  0  0  0
  6  7  1  0  0  0
  7  8  1  0  0  0
  8  9  2  0  0  0
  9 10  1  0  0  0
 10 11  2  0  0  0
 11 12  1  0  0  0
 12 13  2  0  0  0
  4 14  1  0  0  0
 14 15  2  0  0  0
 14 16  1  0  0  0
 16 18  1  0  0  0
 18 19  2  0  0  0
 19 20  1  0  0  0
 20 21  2  0  0  0
 21 22  1  0  0  0
 22 23  2  0  0  0
 23 24  1  0  0  0
 24 25  2  0  0  0
 25 26  1  0  0  0
 26 27  2  0  0  0
 16  2  1  0  0  0
 27 18  1  0  0  0
 13  4  1  0  0  0
 27 22  1  0  0  0
 13  8  1  0  0  0
  3 17  1  0  0  0
M  END
> <minimizedAffinity>
-7.05293

> <CNNscore>
0.3683245778

> <CNNaffinity>
5.2555260658

> <CNN_VS>
1.9357393980

> <CNNaffinity_variance>
0.3208583593

$$$$



 27 31  0  0  0  0  0  0  0  0999 V2000
   -6.8049   -2.5810  -21.5289 O   0  0  0  0  0  0  0  0  0  0  0  0
   -7.7382   -2.3543  -22.3392 C   0  0  0  0  0  0  0  0  0  0  0  0
   -8.9405   -1.6622  -22.0179 N   0  0  0  0  0  0  0  0  0  0  0  0
   -9.5190   -1.1646  -23.2725 C   0  0  0  0  0  0  0  0  0  0  0  0
   -8.7700    0.1004  -23.5898 C   0  0  0  0  0  0  0  0  0  0  0  0
   -9.4615    0.9622  -24.5947 C   0  0  0  0  0  0  0  0  0  0  0  0
  -10.8487    1.0556  -24.3649 O   0  0  0  0  0  0  0  0  0  0  0  0
  -11.6084    0.0666  -23.7945 C   0  0  0  0  0  0  0  0  0  0  0  0
  -12.9850    0.1853  -23.7734 C   0  0  0  0  0  0  0  0  0  0  0  0
  -13.7418   -0.8247  -23.1915 C   0  0  0  0  0  0  0  0  0  0  0  0
  -13.1001   -1.8711  -22.6755 N   0  0  0  0  0  0  0  0  0  0  0  0
  -11.7562   -2.0006  -22.6892 C   0  0  0  0  0  0  0  0  0  0  0  0
  -10.9650   -1.0316  -23.2515 C   0  0  0  0  0  0  0  0  0  0  0  0
   -9.0348   -2.2533  -24.1944 C   0  0  0  0  0  0  0  0  0  0  0  0
   -9.6710   -2.6260  -25.1973 O   0  0  0  0  0  0  0  0  0  0  0  0
   -7.7858   -2.7340  -23.7155 N   0  0  0  0  0  0  0  0  0  0  0  0
   -9.3989   -1.4894  -21.1011 H   0  0  0  0  0  0  0  0  0  0  0  0
   -6.8405   -3.4314  -24.5057 C   0  0  0  0  0  0  0  0  0  0  0  0
   -6.8955   -4.8231  -24.6560 C   0  0  0  0  0  0  0  0  0  0  0  0
   -6.0403   -5.5294  -25.3797 N   0  0  0  0  0  0  0  0  0  0  0  0
   -5.0438   -4.9099  -26.0250 C   0  0  0  0  0  0  0  0  0  0  0  0
   -4.9002   -3.5382  -25.9419 C   0  0  0  0  0  0  0  0  0  0  0  0
   -3.8844   -2.8743  -26.5950 C   0  0  0  0  0  0  0  0  0  0  0  0
   -3.7507   -1.5185  -26.5066 C   0  0  0  0  0  0  0  0  0  0  0  0
   -4.6221   -0.7625  -25.7635 C   0  0  0  0  0  0  0  0  0  0  0  0
   -5.6472   -1.4310  -25.1042 C   0  0  0  0  0  0  0  0  0  0  0  0
   -5.8098   -2.8017  -25.1742 C   0  0  0  0  0  0  0  0  0  0  0  0
  1  2  2  0  0  0
  2  3  1  0  0  0
  4  3  1  0  0  0
  4  5  1  0  0  0
  5  6  1  0  0  0
  6  7  1  0  0  0
  7  8  1  0  0  0
  8  9  2  0  0  0
  9 10  1  0  0  0
 10 11  2  0  0  0
 11 12  1  0  0  0
 12 13  2  0  0  0
  4 14  1  0  0  0
 14 15  2  0  0  0
 14 16  1  0  0  0
 16 18  1  0  0  0
 18 19  2  0  0  0
 19 20  1  0  0  0
 20 21  2  0  0  0
 21 22  1  0  0  0
 22 23  2  0  0  0
 23 24  1  0  0  0
 24 25  2  0  0  0
 25 26  1  0  0  0
 26 27  2  0  0  0
 16  2  1  0  0  0
 27 18  1  0  0  0
 13  4  1  0  0  0
 27 22  1  0  0  0
 13  8  1  0  0  0
  3 17  1  0  0  0
M  END
> <minimizedAffinity>
-5.98875

> <CNNscore>
0.3641492128

> <CNNaffinity>
5.2234468460

> <CNN_VS>
1.9021140337

> <CNNaffinity_variance>
0.4317937493

$$$$



 27 31  0  0  0  0  0  0  0  0999 V2000
   -5.9306   -3.2889  -21.6332 O   0  0  0  0  0  0  0  0  0  0  0  0
   -6.5168   -3.3989  -22.7392 C   0  0  0  0  0  0  0  0  0  0  0  0
   -7.3434   -4.4965  -23.1129 N   0  0  0  0  0  0  0  0  0  0  0  0
   -8.2181   -4.0469  -24.2033 C   0  0  0  0  0  0  0  0  0  0  0  0
   -9.3466   -3.3078  -23.5383 C   0  0  0  0  0  0  0  0  0  0  0  0
  -10.5342   -3.1187  -24.4241 C   0  0  0  0  0  0  0  0  0  0  0  0
  -10.8477   -4.2763  -25.1641 O   0  0  0  0  0  0  0  0  0  0  0  0
   -9.9269   -5.2033  -25.5805 C   0  0  0  0  0  0  0  0  0  0  0  0
  -10.3099   -6.2083  -26.4480 C   0  0  0  0  0  0  0  0  0  0  0  0
   -9.3659   -7.1410  -26.8609 C   0  0  0  0  0  0  0  0  0  0  0  0
   -8.1233   -7.0229  -26.3974 N   0  0  0  0  0  0  0  0  0  0  0  0
   -7.7349   -6.0463  -25.5498 C   0  0  0  0  0  0  0  0  0  0  0  0
   -8.6285   -5.1020  -25.1130 C   0  0  0  0  0  0  0  0  0  0  0  0
   -7.2931   -3.0409  -24.8374 C   0  0  0  0  0  0  0  0  0  0  0  0
   -7.2925   -2.7942  -26.0575 O   0  0  0  0  0  0  0  0  0  0  0  0
   -6.4770   -2.4696  -23.8235 N   0  0  0  0  0  0  0  0  0  0  0  0
   -7.3914   -5.4663  -22.7416 H   0  0  0  0  0  0  0  0  0  0  0  0
   -5.8031   -1.2302  -23.9422 C   0  0  0  0  0  0  0  0  0  0  0  0
   -4.5764   -1.1243  -24.6100 C   0  0  0  0  0  0  0  0  0  0  0  0
   -3.8996    0.0053  -24.7520 N   0  0  0  0  0  0  0  0  0  0  0  0
   -4.3862    1.1420  -24.2378 C   0  0  0  0  0  0  0  0  0  0  0  0
   -5.5898    1.1460  -23.5593 C   0  0  0  0  0  0  0  0  0  0  0  0
   -6.1144    2.3005  -23.0196 C   0  0  0  0  0  0  0  0  0  0  0  0
   -7.3045    2.2943  -22.3507 C   0  0  0  0  0  0  0  0  0  0  0  0
   -8.0260    1.1383  -22.1884 C   0  0  0  0  0  0  0  0  0  0  0  0
   -7.4978   -0.0268  -22.7323 C   0  0  0  0  0  0  0  0  0  0  0  0
   -6.2966   -0.0535  -23.4152 C   0  0  0  0  0  0  0  0  0  0  0  0
  1  2  2  0  0  0
  2  3  1  0  0  0
  4  3  1  0  0  0
  4  5  1  0  0  0
  5  6  1  0  0  0
  6  7  1  0  0  0
  7  8  1  0  0  0
  8  9  2  0  0  0
  9 10  1  0  0  0
 10 11  2  0  0  0
 11 12  1  0  0  0
 12 13  2  0  0  0
  4 14  1  0  0  0
 14 15  2  0  0  0
 14 16  1  0  0  0
 16 18  1  0  0  0
 18 19  2  0  0  0
 19 20  1  0  0  0
 20 21  2  0  0  0
 21 22  1  0  0  0
 22 23  2  0  0  0
 23 24  1  0  0  0
 24 25  2  0  0  0
 25 26  1  0  0  0
 26 27  2  0  0  0
 16  2  1  0  0  0
 27 18  1  0  0  0
 13  4  1  0  0  0
 27 22  1  0  0  0
 13  8  1  0  0  0
  3 17  1  0  0  0
M  END
> <minimizedAffinity>
-6.21277

> <CNNscore>
0.3244190514

> <CNNaffinity>
5.1512970924

> <CNN_VS>
1.6711789370

> <CNNaffinity_variance>
0.3546997011

$$$$



 27 31  0  0  0  0  0  0  0  0999 V2000
   -7.2275   -0.5733  -18.9484 O   0  0  0  0  0  0  0  0  0  0  0  0
   -7.2901   -0.8059  -20.1816 C   0  0  0  0  0  0  0  0  0  0  0  0
   -8.2486   -1.6599  -20.7978 N   0  0  0  0  0  0  0  0  0  0  0  0
   -8.3294   -1.2910  -22.2169 C   0  0  0  0  0  0  0  0  0  0  0  0
   -9.2322   -0.0893  -22.2719 C   0  0  0  0  0  0  0  0  0  0  0  0
   -9.7579    0.1945  -23.6408 C   0  0  0  0  0  0  0  0  0  0  0  0
  -10.1690   -0.9722  -24.3157 O   0  0  0  0  0  0  0  0  0  0  0  0
   -9.6145   -2.2124  -24.1283 C   0  0  0  0  0  0  0  0  0  0  0  0
   -9.9683   -3.2550  -24.9633 C   0  0  0  0  0  0  0  0  0  0  0  0
   -9.3986   -4.5063  -24.7610 C   0  0  0  0  0  0  0  0  0  0  0  0
   -8.5293   -4.6455  -23.7619 N   0  0  0  0  0  0  0  0  0  0  0  0
   -8.1742   -3.6361  -22.9385 C   0  0  0  0  0  0  0  0  0  0  0  0
   -8.7081   -2.3827  -23.0967 C   0  0  0  0  0  0  0  0  0  0  0  0
   -6.9078   -0.8330  -22.4146 C   0  0  0  0  0  0  0  0  0  0  0  0
   -6.3011   -0.9507  -23.4951 O   0  0  0  0  0  0  0  0  0  0  0  0
   -6.4348   -0.2757  -21.1956 N   0  0  0  0  0  0  0  0  0  0  0  0
   -8.8301   -2.4244  -20.4004 H   0  0  0  0  0  0  0  0  0  0  0  0
   -5.3394    0.6155  -21.0949 C   0  0  0  0  0  0  0  0  0  0  0  0
   -4.1544    0.2494  -20.4437 C   0  0  0  0  0  0  0  0  0  0  0  0
   -3.0986    1.0388  -20.3169 N   0  0  0  0  0  0  0  0  0  0  0  0
   -3.1261    2.2751  -20.8308 C   0  0  0  0  0  0  0  0  0  0  0  0
   -4.2485    2.7345  -21.4930 C   0  0  0  0  0  0  0  0  0  0  0  0
   -4.3050    4.0018  -22.0315 C   0  0  0  0  0  0  0  0  0  0  0  0
   -5.4187    4.4467  -22.6839 C   0  0  0  0  0  0  0  0  0  0  0  0
   -6.5266    3.6502  -22.8292 C   0  0  0  0  0  0  0  0  0  0  0  0
   -6.4708    2.3717  -22.2864 C   0  0  0  0  0  0  0  0  0  0  0  0
   -5.3586    1.8917  -21.6210 C   0  0  0  0  0  0  0  0  0  0  0  0
  1  2  2  0  0  0
  2  3  1  0  0  0
  4  3  1  0  0  0
  4  5  1  0  0  0
  5  6  1  0  0  0
  6  7  1  0  0  0
  7  8  1  0  0  0
  8  9  2  0  0  0
  9 10  1  0  0  0
 10 11  2  0  0  0
 11 12  1  0  0  0
 12 13  2  0  0  0
  4 14  1  0  0  0
 14 15  2  0  0  0
 14 16  1  0  0  0
 16 18  1  0  0  0
 18 19  2  0  0  0
 19 20  1  0  0  0
 20 21  2  0  0  0
 21 22  1  0  0  0
 22 23  2  0  0  0
 23 24  1  0  0  0
 24 25  2  0  0  0
 25 26  1  0  0  0
 26 27  2  0  0  0
 16  2  1  0  0  0
 27 18  1  0  0  0
 13  4  1  0  0  0
 27 22  1  0  0  0
 13  8  1  0  0  0
  3 17  1  0  0  0
M  END
> <minimizedAffinity>
-7.48499

> <CNNscore>
0.3164910376

> <CNNaffinity>
5.1767711639

> <CNN_VS>
1.6384016275

> <CNNaffinity_variance>
0.2080223858

$$$$
