


 33 34  0  0  0  0  0  0  0  0999 V2000
  -10.1666   -1.3763  -23.0653 C   0  0  0  0  0  0  0  0  0  0  0  0
  -11.1436   -2.2634  -22.6628 C   0  0  0  0  0  0  0  0  0  0  0  0
  -12.4742   -1.8607  -22.6397 C   0  0  0  0  0  0  0  0  0  0  0  0
  -13.6853   -3.0226  -22.1204 Cl  0  0  0  0  0  0  0  0  0  0  0  0
  -12.8069   -0.5764  -23.0201 C   0  0  0  0  0  0  0  0  0  0  0  0
  -11.8623    0.3275  -23.4244 C   0  0  0  0  0  0  0  0  0  0  0  0
  -10.5406   -0.1021  -23.4375 C   0  0  0  0  0  0  0  0  0  0  0  0
  -12.1684    1.6857  -23.8325 C   0  0  0  0  0  0  0  0  0  0  0  0
  -13.4373    2.2152  -23.7390 C   0  0  0  0  0  0  0  0  0  0  0  0
  -13.7338    3.5161  -24.1296 C   0  0  0  0  0  0  0  0  0  0  0  0
  -12.7443    4.3110  -24.6257 C   0  0  0  0  0  0  0  0  0  0  0  0
  -11.4437    3.8064  -24.7349 C   0  0  0  0  0  0  0  0  0  0  0  0
  -11.1862    2.5095  -24.3370 C   0  0  0  0  0  0  0  0  0  0  0  0
  -13.0282    5.9537  -25.1392 S   0  0  0  0  0  0  0  0  0  0  0  0
  -14.0983    6.7485  -24.0283 N   0  0  0  0  0  0  0  0  0  0  0  0
  -11.7081    6.6559  -25.2135 O   0  0  0  0  0  0  0  0  0  0  0  0
  -13.6495    5.9343  -26.5104 O   0  0  0  0  0  0  0  0  0  0  0  0
  -15.0337    6.8486  -24.4634 H   0  0  0  0  0  0  0  0  0  0  0  0
  -14.1303    6.2199  -23.1481 H   0  0  0  0  0  0  0  0  0  0  0  0
   -8.6672   -3.2925  -23.1493 C   0  0  0  0  0  0  0  0  0  0  0  0
   -8.7230   -1.7837  -23.1005 C   0  0  0  0  0  0  0  0  0  0  0  0
   -8.0037   -1.3336  -21.9527 N   0  0  0  0  0  0  0  0  0  0  0  0
   -7.0508   -0.2819  -21.9641 C   0  0  0  0  0  0  0  0  0  0  0  0
   -6.8212    0.2916  -23.0415 O   0  0  0  0  0  0  0  0  0  0  0  0
   -8.1889   -1.8081  -21.0419 H   0  0  0  0  0  0  0  0  0  0  0  0
   -6.3508    0.1139  -20.7062 C   0  0  0  0  0  0  0  0  0  0  0  0
   -5.4471   -0.8750  -20.3627 O   0  0  0  0  0  0  0  0  0  0  0  0
   -5.8401   -1.6156  -18.9156 S   0  0  0  0  0  0  0  0  0  0  0  0
   -5.2174   -3.2255  -18.8854 N   0  0  0  0  0  0  0  0  0  0  0  0
   -7.3508   -1.7126  -18.8339 O   0  0  0  0  0  0  0  0  0  0  0  0
   -5.2945   -0.7996  -17.7797 O   0  0  0  0  0  0  0  0  0  0  0  0
   -5.4592   -3.7636  -19.7206 H   0  0  0  0  0  0  0  0  0  0  0  0
   -4.2298   -3.2658  -18.5963 H   0  0  0  0  0  0  0  0  0  0  0  0
 20 21  1  0  0  0
 21 22  1  0  0  0
 22 23  1  0  0  0
 23 24  2  0  0  0
 23 26  1  0  0  0
 26 27  1  0  0  0
 27 28  1  0  0  0
 28 29  1  0  0  0
 28 30  2  0  0  0
 28 31  2  0  0  0
 21  1  1  0  0  0
  1  2  2  0  0  0
  2  3  1  0  0  0
  3  4  1  0  0  0
  3  5  2  0  0  0
  5  6  1  0  0  0
  6  8  1  0  0  0
  8  9  2  0  0  0
  9 10  1  0  0  0
 10 11  2  0  0  0
 11 14  1  0  0  0
 14 15  1  0  0  0
 14 16  2  0  0  0
 14 17  2  0  0  0
 11 12  1  0  0  0
 12 13  2  0  0  0
  6  7  2  0  0  0
  7  1  1  0  0  0
 13  8  1  0  0  0
 22 25  1  0  0  0
 29 32  1  0  0  0
 29 33  1  0  0  0
 15 18  1  0  0  0
 15 19  1  0  0  0
M  END
> <minimizedAffinity>
-8.31303

> <CNNscore>
0.8571853042

> <CNNaffinity>
6.4324507713

> <CNN_VS>
5.5138020515

> <CNNaffinity_variance>
0.2437143773

$$$$



 33 34  0  0  0  0  0  0  0  0999 V2000
  -10.4100   -1.6070  -23.2850 C   0  0  0  0  0  0  0  0  0  0  0  0
  -11.3938   -2.4202  -22.7611 C   0  0  0  0  0  0  0  0  0  0  0  0
  -12.6809   -1.9232  -22.5895 C   0  0  0  0  0  0  0  0  0  0  0  0
  -13.9025   -2.9932  -21.9191 Cl  0  0  0  0  0  0  0  0  0  0  0  0
  -12.9641   -0.6200  -22.9448 C   0  0  0  0  0  0  0  0  0  0  0  0
  -12.0115    0.2122  -23.4670 C   0  0  0  0  0  0  0  0  0  0  0  0
  -10.7339   -0.3109  -23.6274 C   0  0  0  0  0  0  0  0  0  0  0  0
  -12.2663    1.5871  -23.8539 C   0  0  0  0  0  0  0  0  0  0  0  0
  -13.5056    2.1739  -23.7163 C   0  0  0  0  0  0  0  0  0  0  0  0
  -13.7529    3.4910  -24.0866 C   0  0  0  0  0  0  0  0  0  0  0  0
  -12.7431    4.2440  -24.6068 C   0  0  0  0  0  0  0  0  0  0  0  0
  -11.4715    3.6806  -24.7609 C   0  0  0  0  0  0  0  0  0  0  0  0
  -11.2627    2.3693  -24.3821 C   0  0  0  0  0  0  0  0  0  0  0  0
  -12.9657    5.9030  -25.0975 S   0  0  0  0  0  0  0  0  0  0  0  0
  -14.0802    6.6956  -24.0294 N   0  0  0  0  0  0  0  0  0  0  0  0
  -11.6300    6.5790  -25.0827 O   0  0  0  0  0  0  0  0  0  0  0  0
  -13.5101    5.9264  -26.5010 O   0  0  0  0  0  0  0  0  0  0  0  0
  -14.9878    6.8246  -24.5131 H   0  0  0  0  0  0  0  0  0  0  0  0
  -14.1715    6.1487  -23.1647 H   0  0  0  0  0  0  0  0  0  0  0  0
   -8.1845   -0.9919  -24.0567 C   0  0  0  0  0  0  0  0  0  0  0  0
   -9.0127   -2.1168  -23.4817 C   0  0  0  0  0  0  0  0  0  0  0  0
   -8.9612   -3.2290  -24.3750 N   0  0  0  0  0  0  0  0  0  0  0  0
   -8.1604   -4.3834  -24.1741 C   0  0  0  0  0  0  0  0  0  0  0  0
   -7.4536   -4.4383  -23.1543 O   0  0  0  0  0  0  0  0  0  0  0  0
   -9.5512   -3.1938  -25.2350 H   0  0  0  0  0  0  0  0  0  0  0  0
   -8.1776   -5.4947  -25.1708 C   0  0  0  0  0  0  0  0  0  0  0  0
   -8.5876   -4.9970  -26.3943 O   0  0  0  0  0  0  0  0  0  0  0  0
   -9.0251   -6.2123  -27.4566 S   0  0  0  0  0  0  0  0  0  0  0  0
  -10.7419   -6.3936  -27.4751 N   0  0  0  0  0  0  0  0  0  0  0  0
   -8.4376   -7.5138  -26.9475 O   0  0  0  0  0  0  0  0  0  0  0  0
   -8.4975   -5.8861  -28.8237 O   0  0  0  0  0  0  0  0  0  0  0  0
  -11.1453   -6.4780  -26.5393 H   0  0  0  0  0  0  0  0  0  0  0  0
  -11.2068   -5.7248  -28.1053 H   0  0  0  0  0  0  0  0  0  0  0  0
 20 21  1  0  0  0
 21 22  1  0  0  0
 22 23  1  0  0  0
 23 24  2  0  0  0
 23 26  1  0  0  0
 26 27  1  0  0  0
 27 28  1  0  0  0
 28 29  1  0  0  0
 28 30  2  0  0  0
 28 31  2  0  0  0
 21  1  1  0  0  0
  1  2  2  0  0  0
  2  3  1  0  0  0
  3  4  1  0  0  0
  3  5  2  0  0  0
  5  6  1  0  0  0
  6  8  1  0  0  0
  8  9  2  0  0  0
  9 10  1  0  0  0
 10 11  2  0  0  0
 11 14  1  0  0  0
 14 15  1  0  0  0
 14 16  2  0  0  0
 14 17  2  0  0  0
 11 12  1  0  0  0
 12 13  2  0  0  0
  6  7  2  0  0  0
  7  1  1  0  0  0
 13  8  1  0  0  0
 22 25  1  0  0  0
 29 32  1  0  0  0
 29 33  1  0  0  0
 15 18  1  0  0  0
 15 19  1  0  0  0
M  END
> <minimizedAffinity>
-7.54913

> <CNNscore>
0.7480064631

> <CNNaffinity>
6.0163588524

> <CNN_VS>
4.5002751350

> <CNNaffinity_variance>
0.1047631502

$$$$



 33 34  0  0  0  0  0  0  0  0999 V2000
   -8.1584   -3.0395  -23.6309 C   0  0  0  0  0  0  0  0  0  0  0  0
   -8.6850   -4.1164  -24.3139 C   0  0  0  0  0  0  0  0  0  0  0  0
   -9.9726   -4.0415  -24.8331 C   0  0  0  0  0  0  0  0  0  0  0  0
  -10.6033   -5.4360  -25.6957 Cl  0  0  0  0  0  0  0  0  0  0  0  0
  -10.7137   -2.8900  -24.6611 C   0  0  0  0  0  0  0  0  0  0  0  0
  -10.2209   -1.8045  -23.9890 C   0  0  0  0  0  0  0  0  0  0  0  0
   -8.9315   -1.9073  -23.4807 C   0  0  0  0  0  0  0  0  0  0  0  0
  -10.9650   -0.5757  -23.7861 C   0  0  0  0  0  0  0  0  0  0  0  0
  -12.3426   -0.5392  -23.7890 C   0  0  0  0  0  0  0  0  0  0  0  0
  -13.0585    0.6368  -23.5953 C   0  0  0  0  0  0  0  0  0  0  0  0
  -12.3884    1.8062  -23.3936 C   0  0  0  0  0  0  0  0  0  0  0  0
  -10.9891    1.8066  -23.3844 C   0  0  0  0  0  0  0  0  0  0  0  0
  -10.3115    0.6195  -23.5802 C   0  0  0  0  0  0  0  0  0  0  0  0
  -13.2066    3.3262  -23.1429 S   0  0  0  0  0  0  0  0  0  0  0  0
  -14.5184    3.4889  -24.2671 N   0  0  0  0  0  0  0  0  0  0  0  0
  -13.6986    3.3657  -21.7295 O   0  0  0  0  0  0  0  0  0  0  0  0
  -12.2238    4.4477  -23.3501 O   0  0  0  0  0  0  0  0  0  0  0  0
  -14.2618    4.1775  -24.9981 H   0  0  0  0  0  0  0  0  0  0  0  0
  -14.7474    2.5678  -24.6598 H   0  0  0  0  0  0  0  0  0  0  0  0
   -6.5267   -4.4977  -22.5640 C   0  0  0  0  0  0  0  0  0  0  0  0
   -6.7717   -3.0921  -23.0604 C   0  0  0  0  0  0  0  0  0  0  0  0
   -6.5968   -2.1834  -21.9736 N   0  0  0  0  0  0  0  0  0  0  0  0
   -5.9535   -0.9226  -22.0772 C   0  0  0  0  0  0  0  0  0  0  0  0
   -5.5098   -0.5783  -23.1850 O   0  0  0  0  0  0  0  0  0  0  0  0
   -6.9660   -2.4622  -21.0382 H   0  0  0  0  0  0  0  0  0  0  0  0
   -5.8211   -0.0438  -20.8776 C   0  0  0  0  0  0  0  0  0  0  0  0
   -4.9125   -0.6098  -20.0019 O   0  0  0  0  0  0  0  0  0  0  0  0
   -5.6622   -1.4994  -18.8005 S   0  0  0  0  0  0  0  0  0  0  0  0
   -5.2485   -3.1685  -18.9532 N   0  0  0  0  0  0  0  0  0  0  0  0
   -7.1609   -1.3842  -18.9980 O   0  0  0  0  0  0  0  0  0  0  0  0
   -5.2564   -0.9585  -17.4601 O   0  0  0  0  0  0  0  0  0  0  0  0
   -5.3844   -3.5293  -19.9003 H   0  0  0  0  0  0  0  0  0  0  0  0
   -4.3472   -3.3981  -18.5109 H   0  0  0  0  0  0  0  0  0  0  0  0
 20 21  1  0  0  0
 21 22  1  0  0  0
 22 23  1  0  0  0
 23 24  2  0  0  0
 23 26  1  0  0  0
 26 27  1  0  0  0
 27 28  1  0  0  0
 28 29  1  0  0  0
 28 30  2  0  0  0
 28 31  2  0  0  0
 21  1  1  0  0  0
  1  2  2  0  0  0
  2  3  1  0  0  0
  3  4  1  0  0  0
  3  5  2  0  0  0
  5  6  1  0  0  0
  6  8  1  0  0  0
  8  9  2  0  0  0
  9 10  1  0  0  0
 10 11  2  0  0  0
 11 14  1  0  0  0
 14 15  1  0  0  0
 14 16  2  0  0  0
 14 17  2  0  0  0
 11 12  1  0  0  0
 12 13  2  0  0  0
  6  7  2  0  0  0
  7  1  1  0  0  0
 13  8  1  0  0  0
 22 25  1  0  0  0
 29 32  1  0  0  0
 29 33  1  0  0  0
 15 18  1  0  0  0
 15 19  1  0  0  0
M  END
> <minimizedAffinity>
-8.24927

> <CNNscore>
0.7409204841

> <CNNaffinity>
6.3751263618

> <CNN_VS>
4.7234616280

> <CNNaffinity_variance>
0.1912419945

$$$$



 33 34  0  0  0  0  0  0  0  0999 V2000
  -10.3211   -0.7096  -23.2513 C   0  0  0  0  0  0  0  0  0  0  0  0
  -11.4800   -1.0857  -22.6039 C   0  0  0  0  0  0  0  0  0  0  0  0
  -12.0018   -2.3584  -22.8068 C   0  0  0  0  0  0  0  0  0  0  0  0
  -13.4792   -2.7952  -21.9624 Cl  0  0  0  0  0  0  0  0  0  0  0  0
  -11.3559   -3.2355  -23.6544 C   0  0  0  0  0  0  0  0  0  0  0  0
  -10.2051   -2.8937  -24.3114 C   0  0  0  0  0  0  0  0  0  0  0  0
   -9.7063   -1.6155  -24.0900 C   0  0  0  0  0  0  0  0  0  0  0  0
   -9.4946   -3.7842  -25.2097 C   0  0  0  0  0  0  0  0  0  0  0  0
   -9.4881   -3.6020  -26.5757 C   0  0  0  0  0  0  0  0  0  0  0  0
   -8.8085   -4.4538  -27.4391 C   0  0  0  0  0  0  0  0  0  0  0  0
   -8.1179   -5.5137  -26.9322 C   0  0  0  0  0  0  0  0  0  0  0  0
   -8.1026   -5.7295  -25.5497 C   0  0  0  0  0  0  0  0  0  0  0  0
   -8.7890   -4.8626  -24.7226 C   0  0  0  0  0  0  0  0  0  0  0  0
   -7.2387   -6.6313  -27.9424 S   0  0  0  0  0  0  0  0  0  0  0  0
   -8.3456   -7.6545  -28.8021 N   0  0  0  0  0  0  0  0  0  0  0  0
   -6.3896   -5.8398  -28.8879 O   0  0  0  0  0  0  0  0  0  0  0  0
   -6.3456   -7.4748  -27.0721 O   0  0  0  0  0  0  0  0  0  0  0  0
   -8.3309   -8.6038  -28.3859 H   0  0  0  0  0  0  0  0  0  0  0  0
   -9.2826   -7.2339  -28.7849 H   0  0  0  0  0  0  0  0  0  0  0  0
  -10.2400    1.5466  -24.1625 C   0  0  0  0  0  0  0  0  0  0  0  0
   -9.7351    0.6570  -23.0508 C   0  0  0  0  0  0  0  0  0  0  0  0
   -8.3081    0.6460  -23.0826 N   0  0  0  0  0  0  0  0  0  0  0  0
   -7.4821    0.3994  -21.9552 C   0  0  0  0  0  0  0  0  0  0  0  0
   -8.0295    0.1769  -20.8628 O   0  0  0  0  0  0  0  0  0  0  0  0
   -7.8375    0.8314  -23.9953 H   0  0  0  0  0  0  0  0  0  0  0  0
   -5.9957    0.4103  -22.0939 C   0  0  0  0  0  0  0  0  0  0  0  0
   -5.4572    1.2244  -21.1141 O   0  0  0  0  0  0  0  0  0  0  0  0
   -4.3341    0.4204  -20.1711 S   0  0  0  0  0  0  0  0  0  0  0  0
   -4.3923    1.0088  -18.5491 N   0  0  0  0  0  0  0  0  0  0  0  0
   -2.9545    0.7323  -20.7169 O   0  0  0  0  0  0  0  0  0  0  0  0
   -4.6097   -1.0543  -20.2253 O   0  0  0  0  0  0  0  0  0  0  0  0
   -4.3470    2.0288  -18.4917 H   0  0  0  0  0  0  0  0  0  0  0  0
   -5.1307    0.5604  -17.9884 H   0  0  0  0  0  0  0  0  0  0  0  0
 20 21  1  0  0  0
 21 22  1  0  0  0
 22 23  1  0  0  0
 23 24  2  0  0  0
 23 26  1  0  0  0
 26 27  1  0  0  0
 27 28  1  0  0  0
 28 29  1  0  0  0
 28 30  2  0  0  0
 28 31  2  0  0  0
 21  1  1  0  0  0
  1  2  2  0  0  0
  2  3  1  0  0  0
  3  4  1  0  0  0
  3  5  2  0  0  0
  5  6  1  0  0  0
  6  8  1  0  0  0
  8  9  2  0  0  0
  9 10  1  0  0  0
 10 11  2  0  0  0
 11 14  1  0  0  0
 14 15  1  0  0  0
 14 16  2  0  0  0
 14 17  2  0  0  0
 11 12  1  0  0  0
 12 13  2  0  0  0
  6  7  2  0  0  0
  7  1  1  0  0  0
 13  8  1  0  0  0
 22 25  1  0  0  0
 29 32  1  0  0  0
 29 33  1  0  0  0
 15 18  1  0  0  0
 15 19  1  0  0  0
M  END
> <minimizedAffinity>
-7.20462

> <CNNscore>
0.6669086814

> <CNNaffinity>
5.7237234116

> <CNN_VS>
3.8172008991

> <CNNaffinity_variance>
0.2419238091

$$$$



 33 34  0  0  0  0  0  0  0  0999 V2000
  -10.3694   -1.6298  -23.1022 C   0  0  0  0  0  0  0  0  0  0  0  0
  -11.3787   -2.4436  -22.6303 C   0  0  0  0  0  0  0  0  0  0  0  0
  -12.6761   -1.9520  -22.5401 C   0  0  0  0  0  0  0  0  0  0  0  0
  -13.9302   -3.0226  -21.9338 Cl  0  0  0  0  0  0  0  0  0  0  0  0
  -12.9440   -0.6536  -22.9236 C   0  0  0  0  0  0  0  0  0  0  0  0
  -11.9660    0.1792  -23.3957 C   0  0  0  0  0  0  0  0  0  0  0  0
  -10.6786   -0.3385  -23.4751 C   0  0  0  0  0  0  0  0  0  0  0  0
  -12.2040    1.5491  -23.8098 C   0  0  0  0  0  0  0  0  0  0  0  0
  -11.2078    2.3445  -24.3333 C   0  0  0  0  0  0  0  0  0  0  0  0
  -11.4327    3.6578  -24.7306 C   0  0  0  0  0  0  0  0  0  0  0  0
  -12.6791    4.1942  -24.6043 C   0  0  0  0  0  0  0  0  0  0  0  0
  -13.7150    3.4153  -24.0765 C   0  0  0  0  0  0  0  0  0  0  0  0
  -13.4547    2.1147  -23.6926 C   0  0  0  0  0  0  0  0  0  0  0  0
  -13.0489    5.8320  -25.0770 S   0  0  0  0  0  0  0  0  0  0  0  0
  -13.8806    5.8389  -26.6000 N   0  0  0  0  0  0  0  0  0  0  0  0
  -13.8860    6.4521  -24.0018 O   0  0  0  0  0  0  0  0  0  0  0  0
  -11.7627    6.6044  -25.2022 O   0  0  0  0  0  0  0  0  0  0  0  0
  -13.2367    6.1690  -27.3422 H   0  0  0  0  0  0  0  0  0  0  0  0
  -14.2500    4.8997  -26.7912 H   0  0  0  0  0  0  0  0  0  0  0  0
   -8.0803   -0.9710  -23.6053 C   0  0  0  0  0  0  0  0  0  0  0  0
   -8.9603   -2.1337  -23.2107 C   0  0  0  0  0  0  0  0  0  0  0  0
   -8.8263   -3.1648  -24.1887 N   0  0  0  0  0  0  0  0  0  0  0  0
   -8.0050   -4.3124  -24.0376 C   0  0  0  0  0  0  0  0  0  0  0  0
   -7.3556   -4.4363  -22.9862 O   0  0  0  0  0  0  0  0  0  0  0  0
   -9.3676   -3.0713  -25.0759 H   0  0  0  0  0  0  0  0  0  0  0  0
   -7.9337   -5.3355  -25.1225 C   0  0  0  0  0  0  0  0  0  0  0  0
   -6.9448   -4.9741  -26.0191 O   0  0  0  0  0  0  0  0  0  0  0  0
   -5.6309   -6.0071  -25.9614 S   0  0  0  0  0  0  0  0  0  0  0  0
   -4.8367   -5.8712  -24.4345 N   0  0  0  0  0  0  0  0  0  0  0  0
   -4.6438   -5.5700  -27.0259 O   0  0  0  0  0  0  0  0  0  0  0  0
   -6.0971   -7.4125  -26.2092 O   0  0  0  0  0  0  0  0  0  0  0  0
   -4.6316   -4.9036  -24.1751 H   0  0  0  0  0  0  0  0  0  0  0  0
   -5.2766   -6.4480  -23.7034 H   0  0  0  0  0  0  0  0  0  0  0  0
 20 21  1  0  0  0
 21 22  1  0  0  0
 22 23  1  0  0  0
 23 24  2  0  0  0
 23 26  1  0  0  0
 26 27  1  0  0  0
 27 28  1  0  0  0
 28 29  1  0  0  0
 28 30  2  0  0  0
 28 31  2  0  0  0
 21  1  1  0  0  0
  1  2  2  0  0  0
  2  3  1  0  0  0
  3  4  1  0  0  0
  3  5  2  0  0  0
  5  6  1  0  0  0
  6  8  1  0  0  0
  8  9  2  0  0  0
  9 10  1  0  0  0
 10 11  2  0  0  0
 11 14  1  0  0  0
 14 15  1  0  0  0
 14 16  2  0  0  0
 14 17  2  0  0  0
 11 12  1  0  0  0
 12 13  2  0  0  0
  6  7  2  0  0  0
  7  1  1  0  0  0
 13  8  1  0  0  0
 22 25  1  0  0  0
 29 32  1  0  0  0
 29 33  1  0  0  0
 15 18  1  0  0  0
 15 19  1  0  0  0
M  END
> <minimizedAffinity>
-6.51228

> <CNNscore>
0.6491996050

> <CNNaffinity>
5.7591066360

> <CNN_VS>
3.7388098240

> <CNNaffinity_variance>
0.0388163514

$$$$



 33 34  0  0  0  0  0  0  0  0999 V2000
  -10.0755   -1.1744  -23.1169 C   0  0  0  0  0  0  0  0  0  0  0  0
  -11.0556   -2.0565  -22.7108 C   0  0  0  0  0  0  0  0  0  0  0  0
  -12.3865   -1.6542  -22.7048 C   0  0  0  0  0  0  0  0  0  0  0  0
  -13.6016   -2.8096  -22.1802 Cl  0  0  0  0  0  0  0  0  0  0  0  0
  -12.7165   -0.3754  -23.1054 C   0  0  0  0  0  0  0  0  0  0  0  0
  -11.7688    0.5235  -23.5138 C   0  0  0  0  0  0  0  0  0  0  0  0
  -10.4468    0.0944  -23.5096 C   0  0  0  0  0  0  0  0  0  0  0  0
  -12.0719    1.8758  -23.9430 C   0  0  0  0  0  0  0  0  0  0  0  0
  -11.1194    2.7049  -24.4949 C   0  0  0  0  0  0  0  0  0  0  0  0
  -11.4068    4.0013  -24.9067 C   0  0  0  0  0  0  0  0  0  0  0  0
  -12.6727    4.4862  -24.7665 C   0  0  0  0  0  0  0  0  0  0  0  0
  -13.6654    3.6720  -24.2099 C   0  0  0  0  0  0  0  0  0  0  0  0
  -13.3435    2.3895  -23.8122 C   0  0  0  0  0  0  0  0  0  0  0  0
  -13.1198    6.0996  -25.2559 S   0  0  0  0  0  0  0  0  0  0  0  0
  -14.1904    6.8020  -24.0848 N   0  0  0  0  0  0  0  0  0  0  0  0
  -11.8688    6.9095  -25.3981 O   0  0  0  0  0  0  0  0  0  0  0  0
  -13.8111    6.0289  -26.5915 O   0  0  0  0  0  0  0  0  0  0  0  0
  -15.1532    6.8239  -24.4681 H   0  0  0  0  0  0  0  0  0  0  0  0
  -14.1304    6.2723  -23.2067 H   0  0  0  0  0  0  0  0  0  0  0  0
   -8.4175   -2.5814  -22.0220 C   0  0  0  0  0  0  0  0  0  0  0  0
   -8.6315   -1.5815  -23.1340 C   0  0  0  0  0  0  0  0  0  0  0  0
   -7.7529   -0.4747  -22.9328 N   0  0  0  0  0  0  0  0  0  0  0  0
   -6.5637   -0.2489  -23.6736 C   0  0  0  0  0  0  0  0  0  0  0  0
   -6.2591   -1.0645  -24.5594 O   0  0  0  0  0  0  0  0  0  0  0  0
   -7.9991    0.2171  -22.1913 H   0  0  0  0  0  0  0  0  0  0  0  0
   -5.7111    0.9421  -23.3848 C   0  0  0  0  0  0  0  0  0  0  0  0
   -4.4747    0.5139  -22.9368 O   0  0  0  0  0  0  0  0  0  0  0  0
   -4.1974    0.9399  -21.3436 S   0  0  0  0  0  0  0  0  0  0  0  0
   -4.5253    2.6192  -21.1134 N   0  0  0  0  0  0  0  0  0  0  0  0
   -2.7264    0.7211  -21.0492 O   0  0  0  0  0  0  0  0  0  0  0  0
   -5.0537    0.0906  -20.4496 O   0  0  0  0  0  0  0  0  0  0  0  0
   -4.0613    3.2155  -21.8024 H   0  0  0  0  0  0  0  0  0  0  0  0
   -5.5242    2.8123  -20.9534 H   0  0  0  0  0  0  0  0  0  0  0  0
 20 21  1  0  0  0
 21 22  1  0  0  0
 22 23  1  0  0  0
 23 24  2  0  0  0
 23 26  1  0  0  0
 26 27  1  0  0  0
 27 28  1  0  0  0
 28 29  1  0  0  0
 28 30  2  0  0  0
 28 31  2  0  0  0
 21  1  1  0  0  0
  1  2  2  0  0  0
  2  3  1  0  0  0
  3  4  1  0  0  0
  3  5  2  0  0  0
  5  6  1  0  0  0
  6  8  1  0  0  0
  8  9  2  0  0  0
  9 10  1  0  0  0
 10 11  2  0  0  0
 11 14  1  0  0  0
 14 15  1  0  0  0
 14 16  2  0  0  0
 14 17  2  0  0  0
 11 12  1  0  0  0
 12 13  2  0  0  0
  6  7  2  0  0  0
  7  1  1  0  0  0
 13  8  1  0  0  0
 22 25  1  0  0  0
 29 32  1  0  0  0
 29 33  1  0  0  0
 15 18  1  0  0  0
 15 19  1  0  0  0
M  END
> <minimizedAffinity>
-6.64055

> <CNNscore>
0.6250784993

> <CNNaffinity>
5.8285884857

> <CNN_VS>
3.6433253288

> <CNNaffinity_variance>
0.0530191772

$$$$



 33 34  0  0  0  0  0  0  0  0999 V2000
   -9.2124   -0.2676  -22.2012 C   0  0  0  0  0  0  0  0  0  0  0  0
   -9.8968   -1.4594  -22.3228 C   0  0  0  0  0  0  0  0  0  0  0  0
  -11.1489   -1.4775  -22.9270 C   0  0  0  0  0  0  0  0  0  0  0  0
  -11.9850   -3.0168  -23.0608 Cl  0  0  0  0  0  0  0  0  0  0  0  0
  -11.6971   -0.3027  -23.4003 C   0  0  0  0  0  0  0  0  0  0  0  0
  -11.0446    0.8957  -23.2954 C   0  0  0  0  0  0  0  0  0  0  0  0
   -9.7950    0.8841  -22.6871 C   0  0  0  0  0  0  0  0  0  0  0  0
  -11.5837    2.1525  -23.7795 C   0  0  0  0  0  0  0  0  0  0  0  0
  -12.9268    2.4535  -23.7111 C   0  0  0  0  0  0  0  0  0  0  0  0
  -13.4465    3.6569  -24.1746 C   0  0  0  0  0  0  0  0  0  0  0  0
  -12.6103    4.5847  -24.7198 C   0  0  0  0  0  0  0  0  0  0  0  0
  -11.2404    4.3128  -24.8054 C   0  0  0  0  0  0  0  0  0  0  0  0
  -10.7598    3.1069  -24.3348 C   0  0  0  0  0  0  0  0  0  0  0  0
  -13.1773    6.1190  -25.3257 S   0  0  0  0  0  0  0  0  0  0  0  0
  -14.0796    5.8848  -26.7892 N   0  0  0  0  0  0  0  0  0  0  0  0
  -14.0218    6.7574  -24.2670 O   0  0  0  0  0  0  0  0  0  0  0  0
  -11.9895    7.0018  -25.6022 O   0  0  0  0  0  0  0  0  0  0  0  0
  -13.5127    6.2010  -27.5974 H   0  0  0  0  0  0  0  0  0  0  0  0
  -14.3548    4.8981  -26.8661 H   0  0  0  0  0  0  0  0  0  0  0  0
   -7.2246    1.1066  -21.9055 C   0  0  0  0  0  0  0  0  0  0  0  0
   -7.8595   -0.2184  -21.5543 C   0  0  0  0  0  0  0  0  0  0  0  0
   -7.0052   -1.2708  -22.0016 N   0  0  0  0  0  0  0  0  0  0  0  0
   -6.2631   -2.1222  -21.1423 C   0  0  0  0  0  0  0  0  0  0  0  0
   -6.3576   -1.9472  -19.9163 O   0  0  0  0  0  0  0  0  0  0  0  0
   -6.9183   -1.4272  -23.0297 H   0  0  0  0  0  0  0  0  0  0  0  0
   -5.3958   -3.1960  -21.7113 C   0  0  0  0  0  0  0  0  0  0  0  0
   -5.6905   -4.3932  -21.0848 O   0  0  0  0  0  0  0  0  0  0  0  0
   -5.8345   -5.6565  -22.1712 S   0  0  0  0  0  0  0  0  0  0  0  0
   -4.2701   -6.1982  -22.6610 N   0  0  0  0  0  0  0  0  0  0  0  0
   -6.5403   -5.1338  -23.4070 O   0  0  0  0  0  0  0  0  0  0  0  0
   -6.6205   -6.7665  -21.5358 O   0  0  0  0  0  0  0  0  0  0  0  0
   -3.6614   -5.4365  -22.9691 H   0  0  0  0  0  0  0  0  0  0  0  0
   -3.8527   -6.8649  -21.9962 H   0  0  0  0  0  0  0  0  0  0  0  0
 20 21  1  0  0  0
 21 22  1  0  0  0
 22 23  1  0  0  0
 23 24  2  0  0  0
 23 26  1  0  0  0
 26 27  1  0  0  0
 27 28  1  0  0  0
 28 29  1  0  0  0
 28 30  2  0  0  0
 28 31  2  0  0  0
 21  1  1  0  0  0
  1  2  2  0  0  0
  2  3  1  0  0  0
  3  4  1  0  0  0
  3  5  2  0  0  0
  5  6  1  0  0  0
  6  8  1  0  0  0
  8  9  2  0  0  0
  9 10  1  0  0  0
 10 11  2  0  0  0
 11 14  1  0  0  0
 14 15  1  0  0  0
 14 16  2  0  0  0
 14 17  2  0  0  0
 11 12  1  0  0  0
 12 13  2  0  0  0
  6  7  2  0  0  0
  7  1  1  0  0  0
 13  8  1  0  0  0
 22 25  1  0  0  0
 29 32  1  0  0  0
 29 33  1  0  0  0
 15 18  1  0  0  0
 15 19  1  0  0  0
M  END
> <minimizedAffinity>
-6.95050

> <CNNscore>
0.4987441897

> <CNNaffinity>
5.6703519821

> <CNN_VS>
2.8280551434

> <CNNaffinity_variance>
0.1565847397

$$$$



 33 34  0  0  0  0  0  0  0  0999 V2000
   -9.7390   -2.2046  -23.0374 C   0  0  0  0  0  0  0  0  0  0  0  0
  -10.9572   -2.7605  -22.7053 C   0  0  0  0  0  0  0  0  0  0  0  0
  -12.1134   -1.9937  -22.7961 C   0  0  0  0  0  0  0  0  0  0  0  0
  -13.6430   -2.7417  -22.3634 Cl  0  0  0  0  0  0  0  0  0  0  0  0
  -12.0330   -0.6821  -23.2181 C   0  0  0  0  0  0  0  0  0  0  0  0
  -10.8407   -0.1008  -23.5549 C   0  0  0  0  0  0  0  0  0  0  0  0
   -9.7015   -0.8906  -23.4545 C   0  0  0  0  0  0  0  0  0  0  0  0
  -10.7116    1.2729  -24.0033 C   0  0  0  0  0  0  0  0  0  0  0  0
   -9.6930    1.6839  -24.8356 C   0  0  0  0  0  0  0  0  0  0  0  0
   -9.5664    2.9996  -25.2667 C   0  0  0  0  0  0  0  0  0  0  0  0
  -10.4749    3.9305  -24.8603 C   0  0  0  0  0  0  0  0  0  0  0  0
  -11.5225    3.5487  -24.0147 C   0  0  0  0  0  0  0  0  0  0  0  0
  -11.6167    2.2329  -23.6069 C   0  0  0  0  0  0  0  0  0  0  0  0
  -10.3912    5.6018  -25.3524 S   0  0  0  0  0  0  0  0  0  0  0  0
   -9.1728    6.4319  -24.4372 N   0  0  0  0  0  0  0  0  0  0  0  0
  -10.0879    5.6439  -26.8179 O   0  0  0  0  0  0  0  0  0  0  0  0
  -11.7296    6.2477  -25.1113 O   0  0  0  0  0  0  0  0  0  0  0  0
   -9.6273    7.0507  -23.7408 H   0  0  0  0  0  0  0  0  0  0  0  0
   -8.5466    5.7445  -24.0006 H   0  0  0  0  0  0  0  0  0  0  0  0
   -7.5059   -2.2554  -22.0690 C   0  0  0  0  0  0  0  0  0  0  0  0
   -8.4753   -3.0087  -22.9493 C   0  0  0  0  0  0  0  0  0  0  0  0
   -7.8724   -3.2142  -24.2267 N   0  0  0  0  0  0  0  0  0  0  0  0
   -7.8562   -4.4545  -24.9163 C   0  0  0  0  0  0  0  0  0  0  0  0
   -8.4016   -5.4328  -24.3795 O   0  0  0  0  0  0  0  0  0  0  0  0
   -7.4115   -2.3991  -24.6873 H   0  0  0  0  0  0  0  0  0  0  0  0
   -7.1974   -4.5654  -26.2514 C   0  0  0  0  0  0  0  0  0  0  0  0
   -7.4878   -5.8029  -26.7963 O   0  0  0  0  0  0  0  0  0  0  0  0
   -8.8616   -5.7673  -27.7493 S   0  0  0  0  0  0  0  0  0  0  0  0
  -10.1528   -6.5972  -26.9588 N   0  0  0  0  0  0  0  0  0  0  0  0
   -8.5611   -6.5154  -29.0331 O   0  0  0  0  0  0  0  0  0  0  0  0
   -9.2268   -4.3395  -28.0353 O   0  0  0  0  0  0  0  0  0  0  0  0
   -9.8867   -7.5270  -26.6268 H   0  0  0  0  0  0  0  0  0  0  0  0
  -10.6517   -6.0045  -26.2803 H   0  0  0  0  0  0  0  0  0  0  0  0
 20 21  1  0  0  0
 21 22  1  0  0  0
 22 23  1  0  0  0
 23 24  2  0  0  0
 23 26  1  0  0  0
 26 27  1  0  0  0
 27 28  1  0  0  0
 28 29  1  0  0  0
 28 30  2  0  0  0
 28 31  2  0  0  0
 21  1  1  0  0  0
  1  2  2  0  0  0
  2  3  1  0  0  0
  3  4  1  0  0  0
  3  5  2  0  0  0
  5  6  1  0  0  0
  6  8  1  0  0  0
  8  9  2  0  0  0
  9 10  1  0  0  0
 10 11  2  0  0  0
 11 14  1  0  0  0
 14 15  1  0  0  0
 14 16  2  0  0  0
 14 17  2  0  0  0
 11 12  1  0  0  0
 12 13  2  0  0  0
  6  7  2  0  0  0
  7  1  1  0  0  0
 13  8  1  0  0  0
 22 25  1  0  0  0
 29 32  1  0  0  0
 29 33  1  0  0  0
 15 18  1  0  0  0
 15 19  1  0  0  0
M  END
> <minimizedAffinity>
-6.52716

> <CNNscore>
0.4739203453

> <CNNaffinity>
5.6534771919

> <CNN_VS>
2.6792979240

> <CNNaffinity_variance>
0.0565100498

$$$$



 33 34  0  0  0  0  0  0  0  0999 V2000
   -9.9659    0.6645  -23.6705 C   0  0  0  0  0  0  0  0  0  0  0  0
  -11.3135    0.6796  -23.3754 C   0  0  0  0  0  0  0  0  0  0  0  0
  -12.0711   -0.4731  -23.5499 C   0  0  0  0  0  0  0  0  0  0  0  0
  -13.7833   -0.4091  -23.1618 Cl  0  0  0  0  0  0  0  0  0  0  0  0
  -11.4685   -1.6236  -24.0170 C   0  0  0  0  0  0  0  0  0  0  0  0
  -10.1346   -1.6718  -24.3189 C   0  0  0  0  0  0  0  0  0  0  0  0
   -9.4019   -0.5052  -24.1350 C   0  0  0  0  0  0  0  0  0  0  0  0
   -9.4617   -2.8591  -24.8113 C   0  0  0  0  0  0  0  0  0  0  0  0
   -8.0888   -2.9495  -24.8892 C   0  0  0  0  0  0  0  0  0  0  0  0
   -7.4412   -4.0857  -25.3610 C   0  0  0  0  0  0  0  0  0  0  0  0
   -8.1765   -5.1593  -25.7656 C   0  0  0  0  0  0  0  0  0  0  0  0
   -9.5732   -5.1028  -25.7004 C   0  0  0  0  0  0  0  0  0  0  0  0
  -10.1820   -3.9577  -25.2262 C   0  0  0  0  0  0  0  0  0  0  0  0
   -7.4463   -6.6233  -26.3707 S   0  0  0  0  0  0  0  0  0  0  0  0
   -6.6559   -6.3132  -27.8840 N   0  0  0  0  0  0  0  0  0  0  0  0
   -6.4748   -7.1203  -25.3458 O   0  0  0  0  0  0  0  0  0  0  0  0
   -8.5220   -7.6583  -26.5672 O   0  0  0  0  0  0  0  0  0  0  0  0
   -7.2164   -6.7205  -28.6549 H   0  0  0  0  0  0  0  0  0  0  0  0
   -6.5149   -5.3017  -27.9942 H   0  0  0  0  0  0  0  0  0  0  0  0
   -8.2649    1.6932  -22.2649 C   0  0  0  0  0  0  0  0  0  0  0  0
   -9.1239    1.8935  -23.4913 C   0  0  0  0  0  0  0  0  0  0  0  0
   -9.9119    3.0704  -23.3139 N   0  0  0  0  0  0  0  0  0  0  0  0
   -9.9476    4.1573  -24.2257 C   0  0  0  0  0  0  0  0  0  0  0  0
   -9.2491    4.0883  -25.2504 O   0  0  0  0  0  0  0  0  0  0  0  0
  -10.5029    3.1391  -22.4566 H   0  0  0  0  0  0  0  0  0  0  0  0
  -10.8069    5.3460  -23.9473 C   0  0  0  0  0  0  0  0  0  0  0  0
  -11.8721    4.9570  -23.1556 O   0  0  0  0  0  0  0  0  0  0  0  0
  -13.3146    4.9376  -24.0017 S   0  0  0  0  0  0  0  0  0  0  0  0
  -14.1167    6.4578  -23.8405 N   0  0  0  0  0  0  0  0  0  0  0  0
  -14.2096    3.8848  -23.3780 O   0  0  0  0  0  0  0  0  0  0  0  0
  -13.0373    4.6185  -25.4422 O   0  0  0  0  0  0  0  0  0  0  0  0
  -14.1948    6.7679  -22.8693 H   0  0  0  0  0  0  0  0  0  0  0  0
  -13.7751    7.1620  -24.5100 H   0  0  0  0  0  0  0  0  0  0  0  0
 20 21  1  0  0  0
 21 22  1  0  0  0
 22 23  1  0  0  0
 23 24  2  0  0  0
 23 26  1  0  0  0
 26 27  1  0  0  0
 27 28  1  0  0  0
 28 29  1  0  0  0
 28 30  2  0  0  0
 28 31  2  0  0  0
 21  1  1  0  0  0
  1  2  2  0  0  0
  2  3  1  0  0  0
  3  4  1  0  0  0
  3  5  2  0  0  0
  5  6  1  0  0  0
  6  8  1  0  0  0
  8  9  2  0  0  0
  9 10  1  0  0  0
 10 11  2  0  0  0
 11 14  1  0  0  0
 14 15  1  0  0  0
 14 16  2  0  0  0
 14 17  2  0  0  0
 11 12  1  0  0  0
 12 13  2  0  0  0
  6  7  2  0  0  0
  7  1  1  0  0  0
 13  8  1  0  0  0
 22 25  1  0  0  0
 29 32  1  0  0  0
 29 33  1  0  0  0
 15 18  1  0  0  0
 15 19  1  0  0  0
M  END
> <minimizedAffinity>
-6.47511

> <CNNscore>
0.4024072289

> <CNNaffinity>
5.6918992996

> <CNN_VS>
2.2904615402

> <CNNaffinity_variance>
0.1210894808

$$$$
