
     RDKit          3D

 40 44  0  0  0  0  0  0  0  0999 V2000
   -1.0025   -0.5209    2.7561 O   0  0  0  0  0  0  0  0  0  0  0  0
   -0.2491   -0.3255    1.7696 C   0  0  0  0  0  0  0  0  0  0  0  0
    1.1462   -0.0548    1.8563 N   0  0  0  0  0  0  0  0  0  0  0  0
    1.7474   -0.3849    0.5579 C   0  0  2  0  0  0  0  0  0  0  0  0
    1.9449   -1.8758    0.5707 C   0  0  0  0  0  0  0  0  0  0  0  0
    2.8952   -2.3565   -0.4765 C   0  0  0  0  0  0  0  0  0  0  0  0
    4.0381   -1.5395   -0.5868 O   0  0  0  0  0  0  0  0  0  0  0  0
    4.0561   -0.1927   -0.3292 C   0  0  0  0  0  0  0  0  0  0  0  0
    5.1811    0.5490   -0.6353 C   0  0  0  0  0  0  0  0  0  0  0  0
    5.1850    1.9128   -0.3681 C   0  0  0  0  0  0  0  0  0  0  0  0
    4.0941    2.4483    0.1762 N   0  0  0  0  0  0  0  0  0  0  0  0
    2.9880    1.7362    0.4803 C   0  0  0  0  0  0  0  0  0  0  0  0
    2.9343    0.3877    0.2361 C   0  0  0  0  0  0  0  0  0  0  0  0
    0.5706   -0.0640   -0.3263 C   0  0  0  0  0  0  0  0  0  0  0  0
    0.6921    0.3645   -1.4887 O   0  0  0  0  0  0  0  0  0  0  0  0
   -0.6260   -0.3341    0.3917 N   0  0  0  0  0  0  0  0  0  0  0  0
   -1.8876   -0.5577   -0.2106 C   0  0  0  0  0  0  0  0  0  0  0  0
   -2.1111   -1.6494   -1.0594 C   0  0  0  0  0  0  0  0  0  0  0  0
   -3.2669   -1.9093   -1.6516 N   0  0  0  0  0  0  0  0  0  0  0  0
   -4.3144   -1.0994   -1.4514 C   0  0  0  0  0  0  0  0  0  0  0  0
   -4.1991    0.0066   -0.6313 C   0  0  0  0  0  0  0  0  0  0  0  0
   -5.2600    0.8573   -0.4074 C   0  0  0  0  0  0  0  0  0  0  0  0
   -5.1362    1.9478    0.4046 C   0  0  0  0  0  0  0  0  0  0  0  0
   -3.9504    2.2409    1.0300 C   0  0  0  0  0  0  0  0  0  0  0  0
   -2.8796    1.3836    0.8049 C   0  0  0  0  0  0  0  0  0  0  0  0
   -2.9729    0.2717   -0.0106 C   0  0  0  0  0  0  0  0  0  0  0  0
    1.7189    0.3066    2.6450 H   0  0  0  0  0  0  0  0  0  0  0  0
    2.2577   -2.2438    1.5905 H   0  0  0  0  0  0  0  0  0  0  0  0
    0.9491   -2.3607    0.3925 H   0  0  0  0  0  0  0  0  0  0  0  0
    3.2370   -3.3822   -0.1486 H   0  0  0  0  0  0  0  0  0  0  0  0
    2.3983   -2.5223   -1.4574 H   0  0  0  0  0  0  0  0  0  0  0  0
    6.0302    0.0433   -1.0761 H   0  0  0  0  0  0  0  0  0  0  0  0
    6.0763    2.4762   -0.6158 H   0  0  0  0  0  0  0  0  0  0  0  0
    2.1374    2.2295    0.9200 H   0  0  0  0  0  0  0  0  0  0  0  0
   -1.2259   -2.2952   -1.2005 H   0  0  0  0  0  0  0  0  0  0  0  0
   -5.2447   -1.3398   -1.9505 H   0  0  0  0  0  0  0  0  0  0  0  0
   -6.1938    0.6012   -0.9174 H   0  0  0  0  0  0  0  0  0  0  0  0
   -6.0122    2.5729    0.5351 H   0  0  0  0  0  0  0  0  0  0  0  0
   -3.8281    3.1044    1.6832 H   0  0  0  0  0  0  0  0  0  0  0  0
   -1.9176    1.5682    1.2694 H   0  0  0  0  0  0  0  0  0  0  0  0
  1  2  2  0
  2  3  1  0
  4  3  1  1
  4  5  1  0
  5  6  1  0
  6  7  1  0
  7  8  1  0
  8  9  2  0
  9 10  1  0
 10 11  2  0
 11 12  1  0
 12 13  2  0
  4 14  1  0
 14 15  2  0
 14 16  1  0
 16 17  1  0
 17 18  2  0
 18 19  1  0
 19 20  2  0
 20 21  1  0
 21 22  2  0
 22 23  1  0
 23 24  2  0
 24 25  1  0
 25 26  2  0
 16  2  1  0
 26 17  1  0
 13  4  1  0
 26 21  1  0
 13  8  1  0
  3 27  1  0
  5 28  1  0
  5 29  1  0
  6 30  1  0
  6 31  1  0
  9 32  1  0
 10 33  1  0
 12 34  1  0
 18 35  1  0
 20 36  1  0
 22 37  1  0
 23 38  1  0
 24 39  1  0
 25 40  1  0
M  END
$$$$
