
     RDKit          3D

 40 43  0  0  0  0  0  0  0  0999 V2000
    1.7980    2.5287   -0.5040 C   0  0  0  0  0  0  0  0  0  0  0  0
    2.9644    1.6900   -0.5909 N   0  0  0  0  0  0  0  0  0  0  0  0
    4.1482    2.1343   -1.0942 N   0  0  0  0  0  0  0  0  0  0  0  0
    5.0453    1.1676   -1.0805 C   0  0  0  0  0  0  0  0  0  0  0  0
    4.4388    0.0418   -0.5504 C   0  0  0  0  0  0  0  0  0  0  0  0
    4.8943   -1.2182   -0.3215 C   0  0  0  0  0  0  0  0  0  0  0  0
    4.0668   -2.1240    0.2007 N   0  0  0  0  0  0  0  0  0  0  0  0
    2.7871   -1.7858    0.4985 C   0  0  0  0  0  0  0  0  0  0  0  0
    2.2593   -0.5243    0.2919 C   0  0  0  0  0  0  0  0  0  0  0  0
    0.9300   -0.1946    0.6744 N   0  0  0  0  0  0  0  0  0  0  0  0
   -0.0994   -1.1042    1.0223 C   0  0  0  0  0  0  0  0  0  0  0  0
    0.1461   -2.3165    0.9960 O   0  0  0  0  0  0  0  0  0  0  0  0
   -1.4524   -0.6759    1.4154 C   0  0  2  0  0  0  0  0  0  0  0  0
   -2.3091   -1.8703    1.8046 C   0  0  0  0  0  0  0  0  0  0  0  0
   -2.5623   -2.8064    0.7598 N   0  0  0  0  0  0  0  0  0  0  0  0
   -3.5372   -2.0580   -0.4323 S   0  0  0  0  0  6  0  0  0  0  0  0
   -4.9768   -2.2188    0.0187 O   0  0  0  0  0  0  0  0  0  0  0  0
   -3.3453   -2.6721   -1.7888 O   0  0  0  0  0  0  0  0  0  0  0  0
   -3.1215   -0.3589   -0.4347 C   0  0  0  0  0  0  0  0  0  0  0  0
   -3.8023    0.4348   -1.3471 C   0  0  0  0  0  0  0  0  0  0  0  0
   -3.5590    1.7692   -1.4066 C   0  0  0  0  0  0  0  0  0  0  0  0
   -2.6354    2.3124   -0.5545 C   0  0  0  0  0  0  0  0  0  0  0  0
   -2.3447    4.0356   -0.6556 Cl  0  0  0  0  0  0  0  0  0  0  0  0
   -1.9519    1.5049    0.3639 C   0  0  0  0  0  0  0  0  0  0  0  0
   -2.1802    0.1511    0.4427 C   0  0  0  0  0  0  0  0  0  0  0  0
    3.1247    0.4264   -0.2567 C   0  0  0  0  0  0  0  0  0  0  0  0
    2.0187    3.4935   -1.0724 H   0  0  0  0  0  0  0  0  0  0  0  0
    1.6166    2.8315    0.5265 H   0  0  0  0  0  0  0  0  0  0  0  0
    0.9112    2.1316   -1.0259 H   0  0  0  0  0  0  0  0  0  0  0  0
    6.0860    1.1694   -1.4052 H   0  0  0  0  0  0  0  0  0  0  0  0
    5.9164   -1.4826   -0.5604 H   0  0  0  0  0  0  0  0  0  0  0  0
    2.2089   -2.5862    0.9257 H   0  0  0  0  0  0  0  0  0  0  0  0
    0.6850    0.8138    0.7377 H   0  0  0  0  0  0  0  0  0  0  0  0
   -1.3265   -0.1202    2.4005 H   0  0  0  0  0  0  0  0  0  0  0  0
   -1.9061   -2.3408    2.7290 H   0  0  0  0  0  0  0  0  0  0  0  0
   -3.2855   -1.4011    2.1397 H   0  0  0  0  0  0  0  0  0  0  0  0
   -1.7624   -3.2456    0.2964 H   0  0  0  0  0  0  0  0  0  0  0  0
   -4.5372    0.0230   -2.0296 H   0  0  0  0  0  0  0  0  0  0  0  0
   -4.0882    2.3912   -2.1173 H   0  0  0  0  0  0  0  0  0  0  0  0
   -1.2625    2.0534    0.9840 H   0  0  0  0  0  0  0  0  0  0  0  0
  1  2  1  0
  2  3  1  0
  3  4  2  0
  4  5  1  0
  5  6  2  0
  6  7  1  0
  7  8  2  0
  8  9  1  0
  9 10  1  0
 10 11  1  0
 11 12  2  0
 11 13  1  0
 13 14  1  0
 14 15  1  0
 15 16  1  0
 16 17  2  0
 16 18  2  0
 16 19  1  0
 19 20  2  0
 20 21  1  0
 21 22  2  0
 22 23  1  0
 22 24  1  0
 24 25  2  0
  9 26  2  0
 26  2  1  0
 26  5  1  0
 25 13  1  0
 25 19  1  0
  1 27  1  0
  1 28  1  0
  1 29  1  0
  4 30  1  0
  6 31  1  0
  8 32  1  0
 10 33  1  0
 13 34  1  1
 14 35  1  0
 14 36  1  0
 15 37  1  0
 20 38  1  0
 21 39  1  0
 24 40  1  0
M  END
$$$$
