
     RDKit          3D

 49 50  0  0  0  0  0  0  0  0999 V2000
   -8.2424    0.3659    0.0922 C   0  0  0  0  0  0  0  0  0  0  0  0
   -7.5349   -0.4388    1.0577 N   0  0  0  0  0  0  0  0  0  0  0  0
   -6.2826   -1.3753    0.3200 S   0  0  0  0  0  6  0  0  0  0  0  0
   -6.1107   -2.6255    1.1492 O   0  0  0  0  0  0  0  0  0  0  0  0
   -6.7395   -1.8105   -1.0467 O   0  0  0  0  0  0  0  0  0  0  0  0
   -4.8314   -0.5761    0.2737 O   0  0  0  0  0  0  0  0  0  0  0  0
   -4.3804   -0.3562   -1.0288 C   0  0  0  0  0  0  0  0  0  0  0  0
   -3.0951    0.3506   -1.0655 C   0  0  0  0  0  0  0  0  0  0  0  0
   -2.5953    0.5944   -2.1928 O   0  0  0  0  0  0  0  0  0  0  0  0
   -2.3759    0.7783    0.0679 N   0  0  0  0  0  0  0  0  0  0  0  0
   -1.1124    1.4712   -0.0176 C   0  0  1  0  0  0  0  0  0  0  0  0
   -1.2192    2.8625    0.6051 C   0  0  0  0  0  0  0  0  0  0  0  0
   -0.0258    0.7729    0.7105 C   0  0  0  0  0  0  0  0  0  0  0  0
   -0.2071    0.2596    1.9829 C   0  0  0  0  0  0  0  0  0  0  0  0
    0.7958   -0.3944    2.6742 C   0  0  0  0  0  0  0  0  0  0  0  0
    0.5216   -1.0247    4.2766 Cl  0  0  0  0  0  0  0  0  0  0  0  0
    2.0311   -0.5323    2.0481 C   0  0  0  0  0  0  0  0  0  0  0  0
    2.2554   -0.0355    0.7797 C   0  0  0  0  0  0  0  0  0  0  0  0
    3.5673   -0.2058    0.1638 C   0  0  0  0  0  0  0  0  0  0  0  0
    4.3307   -1.3187    0.4478 C   0  0  0  0  0  0  0  0  0  0  0  0
    5.5841   -1.5080   -0.1253 C   0  0  0  0  0  0  0  0  0  0  0  0
    6.1134   -0.5856   -1.0034 C   0  0  0  0  0  0  0  0  0  0  0  0
    7.6983   -0.8246   -1.7299 S   0  0  0  0  0  6  0  0  0  0  0  0
    7.5723   -1.6827   -3.2182 N   0  0  0  0  0  0  0  0  0  0  0  0
    8.3326    0.5079   -2.0264 O   0  0  0  0  0  0  0  0  0  0  0  0
    8.5489   -1.5311   -0.7364 O   0  0  0  0  0  0  0  0  0  0  0  0
    5.3510    0.5273   -1.2879 C   0  0  0  0  0  0  0  0  0  0  0  0
    4.1011    0.7162   -0.7165 C   0  0  0  0  0  0  0  0  0  0  0  0
    1.2133    0.6125    0.1315 C   0  0  0  0  0  0  0  0  0  0  0  0
   -7.9107    0.0022   -0.9225 H   0  0  0  0  0  0  0  0  0  0  0  0
   -8.0706    1.4514    0.2106 H   0  0  0  0  0  0  0  0  0  0  0  0
   -9.3299    0.1704    0.1358 H   0  0  0  0  0  0  0  0  0  0  0  0
   -8.2188   -1.0220    1.5764 H   0  0  0  0  0  0  0  0  0  0  0  0
   -4.3911   -1.2748   -1.6494 H   0  0  0  0  0  0  0  0  0  0  0  0
   -5.1587    0.3140   -1.4998 H   0  0  0  0  0  0  0  0  0  0  0  0
   -2.7659    0.5906    1.0127 H   0  0  0  0  0  0  0  0  0  0  0  0
   -0.7779    1.6199   -1.0596 H   0  0  0  0  0  0  0  0  0  0  0  0
   -0.1952    3.1712    0.8885 H   0  0  0  0  0  0  0  0  0  0  0  0
   -1.6957    3.5309   -0.1290 H   0  0  0  0  0  0  0  0  0  0  0  0
   -1.8393    2.7693    1.5195 H   0  0  0  0  0  0  0  0  0  0  0  0
   -1.1983    0.4036    2.4110 H   0  0  0  0  0  0  0  0  0  0  0  0
    2.8276   -1.0276    2.5443 H   0  0  0  0  0  0  0  0  0  0  0  0
    3.9394   -2.0483    1.1270 H   0  0  0  0  0  0  0  0  0  0  0  0
    6.1732   -2.3723    0.0974 H   0  0  0  0  0  0  0  0  0  0  0  0
    6.5721   -1.8631   -3.4766 H   0  0  0  0  0  0  0  0  0  0  0  0
    8.1223   -1.2661   -3.9819 H   0  0  0  0  0  0  0  0  0  0  0  0
    5.7525    1.2563   -1.9726 H   0  0  0  0  0  0  0  0  0  0  0  0
    3.4925    1.5984   -0.9398 H   0  0  0  0  0  0  0  0  0  0  0  0
    1.4082    1.0024   -0.8791 H   0  0  0  0  0  0  0  0  0  0  0  0
  1  2  1  0
  2  3  1  0
  3  4  2  0
  3  5  2  0
  3  6  1  0
  6  7  1  0
  7  8  1  0
  8  9  2  0
  8 10  1  0
 10 11  1  0
 11 12  1  0
 11 13  1  0
 13 14  2  0
 14 15  1  0
 15 16  1  0
 15 17  2  0
 17 18  1  0
 18 19  1  0
 19 20  2  0
 20 21  1  0
 21 22  2  0
 22 23  1  0
 23 24  1  0
 23 25  2  0
 23 26  2  0
 22 27  1  0
 27 28  2  0
 18 29  2  0
 29 13  1  0
 28 19  1  0
  1 30  1  0
  1 31  1  0
  1 32  1  0
  2 33  1  0
  7 34  1  0
  7 35  1  0
 10 36  1  0
 11 37  1  6
 12 38  1  0
 12 39  1  0
 12 40  1  0
 14 41  1  0
 17 42  1  0
 20 43  1  0
 21 44  1  0
 24 45  1  0
 24 46  1  0
 27 47  1  0
 28 48  1  0
 29 49  1  0
M  END
$$$$
