
     RDKit          3D

 63 69  0  0  0  0  0  0  0  0999 V2000
    9.0794    4.1775   23.8598 O   0  0  0  0  0  0  0  0  0  0  0  0
    8.9513    2.9736   23.6989 C   0  0  0  0  0  0  0  0  0  0  0  0
   10.0532    2.1216   23.1610 C   0  0  0  0  0  0  0  0  0  0  0  0
   11.3376    2.6526   23.1720 C   0  0  0  0  0  0  0  0  0  0  0  0
   12.4046    1.9136   22.6936 C   0  0  0  0  0  0  0  0  0  0  0  0
   12.1384    0.6661   22.1313 C   0  0  0  0  0  0  0  0  0  0  0  0
   13.3985   -0.3329   21.4642 Cl  0  0  0  0  0  0  0  0  0  0  0  0
   10.8555    0.1671   22.0360 C   0  0  0  0  0  0  0  0  0  0  0  0
    9.7924    0.8548   22.6290 C   0  0  0  0  0  0  0  0  0  0  0  0
    8.3848    0.2952   22.6734 C   0  0  1  0  0  0  0  0  0  0  0  0
    7.7119    0.8531   23.9665 C   0  0  0  0  0  0  0  0  0  0  0  0
    7.7939    2.3070   24.0033 N   0  0  0  0  0  0  0  0  0  0  0  0
    6.6874    3.0887   24.5142 C   0  0  0  0  0  0  0  0  0  0  0  0
    6.5664    3.0828   26.0081 C   0  0  0  0  0  0  0  0  0  0  0  0
    6.9807    3.9515   26.8696 N   0  0  0  0  0  0  0  0  0  0  0  0
    6.6086    3.4772   28.1245 N   0  0  0  0  0  0  0  0  0  0  0  0
    5.9872    2.3722   27.9091 C   0  0  0  0  0  0  0  0  0  0  0  0
    5.9154    2.0466   26.5988 O   0  0  0  0  0  0  0  0  0  0  0  0
    5.5073    1.7248   28.6277 H   0  0  0  0  0  0  0  0  0  0  0  0
    6.8391    4.1209   24.1944 H   0  0  0  0  0  0  0  0  0  0  0  0
    5.7521    2.7188   24.0829 H   0  0  0  0  0  0  0  0  0  0  0  0
    8.2226    0.4151   24.8429 H   0  0  0  0  0  0  0  0  0  0  0  0
    6.6495    0.5792   24.0079 H   0  0  0  0  0  0  0  0  0  0  0  0
    7.5926    0.7467   21.4266 C   0  0  0  0  0  0  0  0  0  0  0  0
    7.5999    1.8321   20.8870 O   0  0  0  0  0  0  0  0  0  0  0  0
    6.8431   -0.3196   20.9828 N   0  0  0  0  0  0  0  0  0  0  0  0
    5.8882   -0.1665   19.9615 C   0  0  0  0  0  0  0  0  0  0  0  0
    6.0825   -0.7893   18.7569 C   0  0  0  0  0  0  0  0  0  0  0  0
    5.2737   -0.6447   17.6823 N   0  0  0  0  0  0  0  0  0  0  0  0
    4.2152    0.1163   17.8346 C   0  0  0  0  0  0  0  0  0  0  0  0
    3.8694    0.7745   19.0480 C   0  0  0  0  0  0  0  0  0  0  0  0
    2.6964    1.5631   19.1583 C   0  0  0  0  0  0  0  0  0  0  0  0
    2.3531    2.1390   20.3485 C   0  0  0  0  0  0  0  0  0  0  0  0
    3.1877    1.9868   21.4777 C   0  0  0  0  0  0  0  0  0  0  0  0
    4.3452    1.2575   21.3891 C   0  0  0  0  0  0  0  0  0  0  0  0
    4.7184    0.6291   20.1638 C   0  0  0  0  0  0  0  0  0  0  0  0
    4.9851    1.1662   22.2630 H   0  0  0  0  0  0  0  0  0  0  0  0
    2.9094    2.4589   22.4149 H   0  0  0  0  0  0  0  0  0  0  0  0
    1.4352    2.7117   20.4361 H   0  0  0  0  0  0  0  0  0  0  0  0
    2.0880    1.7030   18.2713 H   0  0  0  0  0  0  0  0  0  0  0  0
    3.5523    0.2195   16.9762 H   0  0  0  0  0  0  0  0  0  0  0  0
    6.9600   -1.4206   18.6208 H   0  0  0  0  0  0  0  0  0  0  0  0
    7.0042   -1.5303   21.7482 C   0  0  0  0  0  0  0  0  0  0  0  0
    8.2816   -1.2511   22.5500 C   0  0  2  0  0  0  0  0  0  0  0  0
    8.3273   -2.0698   23.8472 C   0  0  0  0  0  0  0  0  0  0  0  0
    8.3784   -3.4985   23.5901 N   0  0  0  0  0  0  0  0  0  0  0  0
    7.3097   -4.3188   23.5962 C   0  0  0  0  0  0  0  0  0  0  0  0
    7.5469   -5.6010   23.2306 N   0  0  0  0  0  0  0  0  0  0  0  0
    6.4736   -6.3680   23.2272 C   0  0  0  0  0  0  0  0  0  0  0  0
    5.2270   -6.0103   23.5534 N   0  0  0  0  0  0  0  0  0  0  0  0
    5.1220   -4.7343   23.9146 C   0  0  0  0  0  0  0  0  0  0  0  0
    6.1002   -3.8365   23.9549 N   0  0  0  0  0  0  0  0  0  0  0  0
    4.1282   -4.3874   24.2036 H   0  0  0  0  0  0  0  0  0  0  0  0
    6.6111   -7.4081   22.9251 H   0  0  0  0  0  0  0  0  0  0  0  0
    9.2514   -3.9381   23.3334 H   0  0  0  0  0  0  0  0  0  0  0  0
    7.4221   -1.8986   24.4388 H   0  0  0  0  0  0  0  0  0  0  0  0
    9.1944   -1.7888   24.4564 H   0  0  0  0  0  0  0  0  0  0  0  0
    9.1198   -1.5727   21.9221 H   0  0  0  0  0  0  0  0  0  0  0  0
    6.1374   -1.7181   22.3994 H   0  0  0  0  0  0  0  0  0  0  0  0
    7.1111   -2.3990   21.0916 H   0  0  0  0  0  0  0  0  0  0  0  0
   10.7249   -0.7425   21.4592 H   0  0  0  0  0  0  0  0  0  0  0  0
   13.4131    2.3070   22.7237 H   0  0  0  0  0  0  0  0  0  0  0  0
   11.4546    3.6538   23.5686 H   0  0  0  0  0  0  0  0  0  0  0  0
  1  2  2  0
  2  3  1  0
  3  4  2  0
  4  5  1  0
  5  6  2  0
  6  7  1  0
  6  8  1  0
  8  9  2  0
  9 10  1  0
 10 11  1  1
 11 12  1  0
 12 13  1  0
 13 14  1  0
 14 15  2  0
 15 16  1  0
 16 17  2  0
 17 18  1  0
 17 19  1  0
 13 20  1  0
 13 21  1  0
 11 22  1  0
 11 23  1  0
 10 24  1  0
 24 25  2  0
 24 26  1  0
 26 27  1  0
 27 28  2  0
 28 29  1  0
 29 30  2  0
 30 31  1  0
 31 32  2  0
 32 33  1  0
 33 34  2  0
 34 35  1  0
 35 36  2  0
 35 37  1  0
 34 38  1  0
 33 39  1  0
 32 40  1  0
 30 41  1  0
 28 42  1  0
 26 43  1  0
 43 44  1  0
 44 45  1  0
 45 46  1  0
 46 47  1  0
 47 48  2  0
 48 49  1  0
 49 50  2  0
 50 51  1  0
 51 52  2  0
 51 53  1  0
 49 54  1  0
 46 55  1  0
 45 56  1  0
 45 57  1  0
 44 58  1  6
 43 59  1  0
 43 60  1  0
  8 61  1  0
  5 62  1  0
  4 63  1  0
 12  2  1  0
 18 14  1  0
 36 27  1  0
 52 47  1  0
  9  3  1  0
 44 10  1  0
 36 31  1  0
M  END
>  <cnnaffinities>  (1) 
[6.69447, 6.72855, 6.73273, 6.74796, 6.95049, 6.74132, 6.73952, 6.66525]

>  <score>  (1) 
6.69447

>  <index>  (1) 
0

>  <Smiles>  (1) 
O=C1c2c(c(c(Cl)c(c2[C@@]2(C(N1C(c1nnc(o1)[H])([H])[H])([H])[H])C(=O)N(c1c(nc(c3c(c(c(c(c13)[H])[H])[H])[H])[H])[H])C([C@@]2(C(N(c1nc(nc(n1)[H])[H])[H])([H])[H])[H])([H])[H])[H])[H])[H]

>  <h>  (1) 
<NA>

>  <Training>  (1) 
True

>  <Success>  (1) 
True

>  <enamine_searched>  (1) 
False

>  <enamine_id>  (1) 
nan

$$$$

     RDKit          3D

 51 54  0  0  0  0  0  0  0  0999 V2000
    7.6306    8.0559   21.8853 C   0  0  0  0  0  0  0  0  0  0  0  0
    8.5214    7.1929   22.5578 O   0  0  0  0  0  0  0  0  0  0  0  0
    8.3171    5.8564   22.4596 C   0  0  0  0  0  0  0  0  0  0  0  0
    7.3030    5.2625   21.7179 C   0  0  0  0  0  0  0  0  0  0  0  0
    7.1917    3.8760   21.6868 C   0  0  0  0  0  0  0  0  0  0  0  0
    8.0587    3.0534   22.4047 C   0  0  0  0  0  0  0  0  0  0  0  0
    7.8589    1.6341   22.4111 N   0  0  0  0  0  0  0  0  0  0  0  0
    7.8835    0.8785   23.6609 C   0  0  0  0  0  0  0  0  0  0  0  0
    8.8346   -0.3116   23.6424 C   0  0  0  0  0  0  0  0  0  0  0  0
   10.1818   -0.1382   23.3266 C   0  0  0  0  0  0  0  0  0  0  0  0
   11.0528   -1.2234   23.3015 C   0  0  0  0  0  0  0  0  0  0  0  0
   10.5936   -2.5076   23.5801 C   0  0  0  0  0  0  0  0  0  0  0  0
    9.2532   -2.6765   23.8961 C   0  0  0  0  0  0  0  0  0  0  0  0
    8.6598   -4.2792   24.2487 Cl  0  0  0  0  0  0  0  0  0  0  0  0
    8.3742   -1.5977   23.9368 C   0  0  0  0  0  0  0  0  0  0  0  0
    7.3369   -1.7809   24.2091 H   0  0  0  0  0  0  0  0  0  0  0  0
   11.2567   -3.3676   23.5592 H   0  0  0  0  0  0  0  0  0  0  0  0
   12.1022   -1.0665   23.0582 H   0  0  0  0  0  0  0  0  0  0  0  0
   10.5600    0.8571   23.0994 H   0  0  0  0  0  0  0  0  0  0  0  0
    6.8760    0.5050   23.8960 H   0  0  0  0  0  0  0  0  0  0  0  0
    8.1670    1.5907   24.4435 H   0  0  0  0  0  0  0  0  0  0  0  0
    7.7005    0.9874   21.1940 C   0  0  0  0  0  0  0  0  0  0  0  0
    8.2138    1.4080   20.1812 O   0  0  0  0  0  0  0  0  0  0  0  0
    6.8731   -0.3040   21.1069 C   0  0  0  0  0  0  0  0  0  0  0  0
    5.8585   -0.1903   19.9908 C   0  0  0  0  0  0  0  0  0  0  0  0
    6.0472   -0.7963   18.7768 C   0  0  0  0  0  0  0  0  0  0  0  0
    5.2417   -0.6552   17.6887 N   0  0  0  0  0  0  0  0  0  0  0  0
    4.1796    0.0969   17.8315 C   0  0  0  0  0  0  0  0  0  0  0  0
    3.8252    0.7527   19.0408 C   0  0  0  0  0  0  0  0  0  0  0  0
    2.6488    1.5356   19.1655 C   0  0  0  0  0  0  0  0  0  0  0  0
    2.3423    2.1588   20.3388 C   0  0  0  0  0  0  0  0  0  0  0  0
    3.2191    2.0550   21.4411 C   0  0  0  0  0  0  0  0  0  0  0  0
    4.3708    1.3181   21.3440 C   0  0  0  0  0  0  0  0  0  0  0  0
    4.6992    0.6271   20.1465 C   0  0  0  0  0  0  0  0  0  0  0  0
    5.0430    1.2682   22.1971 H   0  0  0  0  0  0  0  0  0  0  0  0
    2.9885    2.5723   22.3678 H   0  0  0  0  0  0  0  0  0  0  0  0
    1.4320    2.7450   20.4282 H   0  0  0  0  0  0  0  0  0  0  0  0
    2.0066    1.6424   18.2993 H   0  0  0  0  0  0  0  0  0  0  0  0
    3.5154    0.1898   16.9685 H   0  0  0  0  0  0  0  0  0  0  0  0
    6.8978   -1.4586   18.6064 H   0  0  0  0  0  0  0  0  0  0  0  0
    6.4125   -0.5706   22.0637 H   0  0  0  0  0  0  0  0  0  0  0  0
    7.5921   -1.0896   20.8510 H   0  0  0  0  0  0  0  0  0  0  0  0
    9.0728    3.6700   23.1513 C   0  0  0  0  0  0  0  0  0  0  0  0
    9.2129    5.0482   23.1681 C   0  0  0  0  0  0  0  0  0  0  0  0
    9.9909    5.5379   23.7523 H   0  0  0  0  0  0  0  0  0  0  0  0
    9.7659    3.0794   23.7473 H   0  0  0  0  0  0  0  0  0  0  0  0
    6.3970    3.4264   21.0975 H   0  0  0  0  0  0  0  0  0  0  0  0
    6.6105    5.8702   21.1411 H   0  0  0  0  0  0  0  0  0  0  0  0
    7.5552    7.8056   20.8186 H   0  0  0  0  0  0  0  0  0  0  0  0
    8.0819    9.0425   22.0101 H   0  0  0  0  0  0  0  0  0  0  0  0
    6.6289    8.0360   22.3391 H   0  0  0  0  0  0  0  0  0  0  0  0
  1  2  1  0
  2  3  1  0
  3  4  2  0
  4  5  1  0
  5  6  2  0
  6  7  1  0
  7  8  1  0
  8  9  1  0
  9 10  2  0
 10 11  1  0
 11 12  2  0
 12 13  1  0
 13 14  1  0
 13 15  2  0
 15 16  1  0
 12 17  1  0
 11 18  1  0
 10 19  1  0
  8 20  1  0
  8 21  1  0
  7 22  1  0
 22 23  2  0
 22 24  1  0
 24 25  1  0
 25 26  2  0
 26 27  1  0
 27 28  2  0
 28 29  1  0
 29 30  2  0
 30 31  1  0
 31 32  2  0
 32 33  1  0
 33 34  2  0
 33 35  1  0
 32 36  1  0
 31 37  1  0
 30 38  1  0
 28 39  1  0
 26 40  1  0
 24 41  1  0
 24 42  1  0
  6 43  1  0
 43 44  2  0
 44 45  1  0
 43 46  1  0
  5 47  1  0
  4 48  1  0
  1 49  1  0
  1 50  1  0
  1 51  1  0
 44  3  1  0
 15  9  1  0
 34 25  1  0
 34 29  1  0
M  END
>  <cnnaffinities>  (2) 
[6.06315, 6.06278, 5.79605, 6.24951, 6.24978, 6.10983, 5.83789, 5.7652, 5.76589, 5.95762, 5.9321, 6.34088, 6.21406, 5.96038, 5.96273]

>  <score>  (2) 
6.06315

>  <index>  (2) 
1

>  <Smiles>  (2) 
C(Oc1c(c(c(N(C(c2c(c(c(c(Cl)c2[H])[H])[H])[H])([H])[H])C(=O)C(c2c(nc(c3c(c(c(c(c23)[H])[H])[H])[H])[H])[H])([H])[H])c(c1[H])[H])[H])[H])([H])([H])[H]

>  <h>  (2) 
<NA>

>  <Training>  (2) 
True

>  <Success>  (2) 
True

>  <enamine_searched>  (2) 
False

>  <enamine_id>  (2) 
nan

$$$$

     RDKit          3D

 56 60  0  0  0  0  0  0  0  0999 V2000
   13.5870    0.7468   23.4785 C   0  0  0  0  0  0  0  0  0  0  0  0
   12.5995   -0.2244   23.0339 N   0  0  0  0  0  0  0  0  0  0  0  0
   12.9884   -1.5372   22.9806 C   0  0  0  0  0  0  0  0  0  0  0  0
   14.1493   -1.8779   23.1088 O   0  0  0  0  0  0  0  0  0  0  0  0
   11.8990   -2.5686   22.7020 C   0  0  0  0  0  0  0  0  0  0  0  0
   10.5368   -2.2699   23.1203 N   0  0  0  0  0  0  0  0  0  0  0  0
    9.3899   -2.5791   22.2619 C   0  0  0  0  0  0  0  0  0  0  0  0
    8.3314   -1.4830   22.4484 C   0  0  2  0  0  0  0  0  0  0  0  0
    7.1031   -1.6960   21.5402 C   0  0  0  0  0  0  0  0  0  0  0  0
    6.5806   -2.7514   21.2519 O   0  0  0  0  0  0  0  0  0  0  0  0
    6.6811   -0.4535   21.0946 N   0  0  0  0  0  0  0  0  0  0  0  0
    5.7828   -0.2864   20.0097 C   0  0  0  0  0  0  0  0  0  0  0  0
    6.0572   -0.8107   18.7700 C   0  0  0  0  0  0  0  0  0  0  0  0
    5.3195   -0.5577   17.6608 N   0  0  0  0  0  0  0  0  0  0  0  0
    4.2659    0.2151   17.7889 C   0  0  0  0  0  0  0  0  0  0  0  0
    3.8667    0.8235   19.0147 C   0  0  0  0  0  0  0  0  0  0  0  0
    2.7222    1.6630   19.1163 C   0  0  0  0  0  0  0  0  0  0  0  0
    2.3797    2.2308   20.3141 C   0  0  0  0  0  0  0  0  0  0  0  0
    3.1754    2.0094   21.4599 C   0  0  0  0  0  0  0  0  0  0  0  0
    4.2956    1.2166   21.3820 C   0  0  0  0  0  0  0  0  0  0  0  0
    4.6570    0.5859   20.1600 C   0  0  0  0  0  0  0  0  0  0  0  0
    4.9136    1.0685   22.2634 H   0  0  0  0  0  0  0  0  0  0  0  0
    2.8988    2.4670   22.4058 H   0  0  0  0  0  0  0  0  0  0  0  0
    1.4936    2.8579   20.3918 H   0  0  0  0  0  0  0  0  0  0  0  0
    2.1261    1.8515   18.2279 H   0  0  0  0  0  0  0  0  0  0  0  0
    3.6671    0.3876   16.8932 H   0  0  0  0  0  0  0  0  0  0  0  0
    6.9197   -1.4570   18.6121 H   0  0  0  0  0  0  0  0  0  0  0  0
    7.6254    0.6172   21.4060 C   0  0  0  0  0  0  0  0  0  0  0  0
    8.8557   -0.0817   22.0053 C   0  0  2  0  0  0  0  0  0  0  0  0
   10.0156   -0.1665   21.0558 N   0  0  0  0  0  4  0  0  0  0  0  0
    9.8278   -0.8183   20.2634 H   0  0  0  0  0  0  0  0  0  0  0  0
   10.8706   -0.4828   21.5500 H   0  0  0  0  0  0  0  0  0  0  0  0
   10.2100    0.7805   20.7029 H   0  0  0  0  0  0  0  0  0  0  0  0
    9.2057    0.4722   22.8776 H   0  0  0  0  0  0  0  0  0  0  0  0
    7.1966    1.3044   22.1447 H   0  0  0  0  0  0  0  0  0  0  0  0
    7.8609    1.1793   20.4985 H   0  0  0  0  0  0  0  0  0  0  0  0
    7.9767   -1.4373   23.9363 C   0  0  0  0  0  0  0  0  0  0  0  0
    6.7821   -0.8673   24.3912 C   0  0  0  0  0  0  0  0  0  0  0  0
    6.5567   -0.7334   25.7525 C   0  0  0  0  0  0  0  0  0  0  0  0
    5.1118    0.0465   26.3202 Cl  0  0  0  0  0  0  0  0  0  0  0  0
    7.4698   -1.1994   26.6946 C   0  0  0  0  0  0  0  0  0  0  0  0
    8.6586   -1.7467   26.2511 C   0  0  0  0  0  0  0  0  0  0  0  0
    8.9348   -1.8215   24.8861 C   0  0  0  0  0  0  0  0  0  0  0  0
   10.3066   -2.2646   24.4786 C   0  0  0  0  0  0  0  0  0  0  0  0
   11.1839   -2.5240   25.2899 O   0  0  0  0  0  0  0  0  0  0  0  0
    9.4126   -2.1134   26.9417 H   0  0  0  0  0  0  0  0  0  0  0  0
    7.2502   -1.1108   27.7530 H   0  0  0  0  0  0  0  0  0  0  0  0
    6.0210   -0.5273   23.6975 H   0  0  0  0  0  0  0  0  0  0  0  0
    9.7082   -2.6606   21.2202 H   0  0  0  0  0  0  0  0  0  0  0  0
    8.9314   -3.5372   22.5427 H   0  0  0  0  0  0  0  0  0  0  0  0
   11.8996   -2.7318   21.6210 H   0  0  0  0  0  0  0  0  0  0  0  0
   12.2611   -3.4683   23.1903 H   0  0  0  0  0  0  0  0  0  0  0  0
   11.6568   -0.0438   23.3321 H   0  0  0  0  0  0  0  0  0  0  0  0
   13.0879    1.6967   23.6783 H   0  0  0  0  0  0  0  0  0  0  0  0
   14.0884    0.3990   24.3819 H   0  0  0  0  0  0  0  0  0  0  0  0
   14.3512    0.9194   22.7190 H   0  0  0  0  0  0  0  0  0  0  0  0
  1  2  1  0
  2  3  1  0
  3  4  2  0
  3  5  1  0
  5  6  1  0
  6  7  1  0
  8  7  1  1
  8  9  1  0
  9 10  2  0
  9 11  1  0
 11 12  1  0
 12 13  2  0
 13 14  1  0
 14 15  2  0
 15 16  1  0
 16 17  2  0
 17 18  1  0
 18 19  2  0
 19 20  1  0
 20 21  2  0
 20 22  1  0
 19 23  1  0
 18 24  1  0
 17 25  1  0
 15 26  1  0
 13 27  1  0
 11 28  1  0
 28 29  1  0
 29 30  1  0
 30 31  1  0
 30 32  1  0
 30 33  1  0
 29 34  1  1
 28 35  1  0
 28 36  1  0
  8 37  1  0
 37 38  2  0
 38 39  1  0
 39 40  1  0
 39 41  2  0
 41 42  1  0
 42 43  2  0
 43 44  1  0
 44 45  2  0
 42 46  1  0
 41 47  1  0
 38 48  1  0
  7 49  1  0
  7 50  1  0
  5 51  1  0
  5 52  1  0
  2 53  1  0
  1 54  1  0
  1 55  1  0
  1 56  1  0
 44  6  1  0
 29  8  1  0
 43 37  1  0
 21 12  1  0
 21 16  1  0
M  CHG  1  30   1
M  END
>  <cnnaffinities>  (3) 
[6.34866, 6.09243, 6.35237]

>  <score>  (3) 
6.34866

>  <index>  (3) 
2

>  <Smiles>  (3) 
C(N(C(=O)C(N1C([C@@]2(C(=O)N(c3c(nc(c4c(c(c(c(c34)[H])[H])[H])[H])[H])[H])C([C@@]2([N+]([H])([H])[H])[H])([H])[H])c2c(c(Cl)c(c(c2C1=O)[H])[H])[H])([H])[H])([H])[H])[H])([H])([H])[H]

>  <h>  (3) 
<NA>

>  <Training>  (3) 
True

>  <Success>  (3) 
True

>  <enamine_searched>  (3) 
False

>  <enamine_id>  (3) 
nan

$$$$

     RDKit          3D

 67 73  0  0  0  0  0  0  0  0999 V2000
   10.7017    3.7062   23.2738 O   0  0  0  0  0  0  0  0  0  0  0  0
   10.1162    2.6384   23.1573 C   0  0  0  0  0  0  0  0  0  0  0  0
   10.8007    1.4036   22.6547 C   0  0  0  0  0  0  0  0  0  0  0  0
   12.1786    1.4666   22.4495 C   0  0  0  0  0  0  0  0  0  0  0  0
   12.8527    0.4113   21.8695 C   0  0  0  0  0  0  0  0  0  0  0  0
   12.1154   -0.7005   21.4647 C   0  0  0  0  0  0  0  0  0  0  0  0
   12.9228   -2.0081   20.6504 Cl  0  0  0  0  0  0  0  0  0  0  0  0
   10.7484   -0.7748   21.6502 C   0  0  0  0  0  0  0  0  0  0  0  0
   10.0711    0.2582   22.3078 C   0  0  0  0  0  0  0  0  0  0  0  0
    8.5695    0.1791   22.5205 C   0  0  1  0  0  0  0  0  0  0  0  0
    8.1997    1.1857   23.6486 C   0  0  0  0  0  0  0  0  0  0  0  0
    8.7781    2.4966   23.4138 N   0  0  0  0  0  0  0  0  0  0  0  0
    7.9448    3.6908   23.4631 C   0  0  0  0  0  0  0  0  0  0  0  0
    7.6582    4.2345   24.8575 C   0  0  0  0  0  0  0  0  0  0  0  0
    8.2081    5.4168   25.2978 C   0  0  0  0  0  0  0  0  0  0  0  0
    7.9037    5.8518   26.5855 C   0  0  0  0  0  0  0  0  0  0  0  0
    7.1099    5.1816   27.4145 N   0  0  0  0  0  0  0  0  0  0  0  0
    6.5565    4.0487   27.0005 N   0  0  0  0  0  0  0  0  0  0  0  0
    6.8142    3.5925   25.7769 C   0  0  0  0  0  0  0  0  0  0  0  0
    6.2726    2.6846   25.5132 H   0  0  0  0  0  0  0  0  0  0  0  0
    8.3256    6.7694   26.9894 H   0  0  0  0  0  0  0  0  0  0  0  0
    8.8993    5.9751   24.6649 H   0  0  0  0  0  0  0  0  0  0  0  0
    7.0121    3.4557   22.9306 H   0  0  0  0  0  0  0  0  0  0  0  0
    8.4540    4.4680   22.8841 H   0  0  0  0  0  0  0  0  0  0  0  0
    7.1111    1.2931   23.7333 H   0  0  0  0  0  0  0  0  0  0  0  0
    8.5714    0.7803   24.6017 H   0  0  0  0  0  0  0  0  0  0  0  0
    7.8368    0.5507   21.2111 C   0  0  0  0  0  0  0  0  0  0  0  0
    8.0692    1.4822   20.4729 O   0  0  0  0  0  0  0  0  0  0  0  0
    6.8277   -0.3625   21.0014 N   0  0  0  0  0  0  0  0  0  0  0  0
    5.8855   -0.1692   19.9643 C   0  0  0  0  0  0  0  0  0  0  0  0
    6.0961   -0.7632   18.7503 C   0  0  0  0  0  0  0  0  0  0  0  0
    5.2812   -0.6299   17.6753 N   0  0  0  0  0  0  0  0  0  0  0  0
    4.2123    0.1150   17.8277 C   0  0  0  0  0  0  0  0  0  0  0  0
    3.8680    0.7797   19.0412 C   0  0  0  0  0  0  0  0  0  0  0  0
    2.6999    1.5757   19.1565 C   0  0  0  0  0  0  0  0  0  0  0  0
    2.3868    2.1808   20.3421 C   0  0  0  0  0  0  0  0  0  0  0  0
    3.2415    2.0513   21.4587 C   0  0  0  0  0  0  0  0  0  0  0  0
    4.3898    1.3056   21.3695 C   0  0  0  0  0  0  0  0  0  0  0  0
    4.7242    0.6406   20.1542 C   0  0  0  0  0  0  0  0  0  0  0  0
    5.0460    1.2212   22.2321 H   0  0  0  0  0  0  0  0  0  0  0  0
    2.9866    2.5496   22.3887 H   0  0  0  0  0  0  0  0  0  0  0  0
    1.4749    2.7627   20.4346 H   0  0  0  0  0  0  0  0  0  0  0  0
    2.0740    1.7021   18.2802 H   0  0  0  0  0  0  0  0  0  0  0  0
    3.5417    0.2101   16.9724 H   0  0  0  0  0  0  0  0  0  0  0  0
    6.9820   -1.3793   18.6157 H   0  0  0  0  0  0  0  0  0  0  0  0
    6.6829   -1.3486   22.0448 C   0  0  0  0  0  0  0  0  0  0  0  0
    8.0166   -1.2513   22.7965 C   0  0  2  0  0  0  0  0  0  0  0  0
    7.8614   -1.6644   24.2669 C   0  0  0  0  0  0  0  0  0  0  0  0
    7.4288   -3.0419   24.3881 N   0  0  0  0  0  0  0  0  0  0  0  0
    6.1447   -3.4218   24.6262 C   0  0  0  0  0  0  0  0  0  0  0  0
    5.7902   -4.7871   24.5819 C   0  0  0  0  0  0  0  0  0  0  0  0
    4.4750   -5.0969   24.8313 C   0  0  0  0  0  0  0  0  0  0  0  0
    3.5444   -4.1747   25.1263 N   0  0  0  0  0  0  0  0  0  0  0  0
    3.9857   -2.9262   25.1468 C   0  0  0  0  0  0  0  0  0  0  0  0
    5.2237   -2.4853   24.9042 N   0  0  0  0  0  0  0  0  0  0  0  0
    3.2460   -2.1606   25.3879 H   0  0  0  0  0  0  0  0  0  0  0  0
    4.1316   -6.1338   24.8008 H   0  0  0  0  0  0  0  0  0  0  0  0
    6.5307   -5.5513   24.3607 H   0  0  0  0  0  0  0  0  0  0  0  0
    8.1016   -3.7681   24.1884 H   0  0  0  0  0  0  0  0  0  0  0  0
    7.0896   -1.0592   24.7549 H   0  0  0  0  0  0  0  0  0  0  0  0
    8.8099   -1.5352   24.8048 H   0  0  0  0  0  0  0  0  0  0  0  0
    8.7061   -1.9628   22.3300 H   0  0  0  0  0  0  0  0  0  0  0  0
    5.8335   -1.1259   22.7088 H   0  0  0  0  0  0  0  0  0  0  0  0
    6.5110   -2.3459   21.6268 H   0  0  0  0  0  0  0  0  0  0  0  0
   10.2261   -1.6433   21.2631 H   0  0  0  0  0  0  0  0  0  0  0  0
   13.9239    0.4498   21.7035 H   0  0  0  0  0  0  0  0  0  0  0  0
   12.6969    2.3757   22.7301 H   0  0  0  0  0  0  0  0  0  0  0  0
  1  2  2  0
  2  3  1  0
  3  4  2  0
  4  5  1  0
  5  6  2  0
  6  7  1  0
  6  8  1  0
  8  9  2  0
  9 10  1  0
 10 11  1  1
 11 12  1  0
 12 13  1  0
 13 14  1  0
 14 15  2  0
 15 16  1  0
 16 17  2  0
 17 18  1  0
 18 19  2  0
 19 20  1  0
 16 21  1  0
 15 22  1  0
 13 23  1  0
 13 24  1  0
 11 25  1  0
 11 26  1  0
 10 27  1  0
 27 28  2  0
 27 29  1  0
 29 30  1  0
 30 31  2  0
 31 32  1  0
 32 33  2  0
 33 34  1  0
 34 35  2  0
 35 36  1  0
 36 37  2  0
 37 38  1  0
 38 39  2  0
 38 40  1  0
 37 41  1  0
 36 42  1  0
 35 43  1  0
 33 44  1  0
 31 45  1  0
 29 46  1  0
 46 47  1  0
 47 48  1  0
 48 49  1  0
 49 50  1  0
 50 51  2  0
 51 52  1  0
 52 53  2  0
 53 54  1  0
 54 55  2  0
 54 56  1  0
 52 57  1  0
 51 58  1  0
 49 59  1  0
 48 60  1  0
 48 61  1  0
 47 62  1  6
 46 63  1  0
 46 64  1  0
  8 65  1  0
  5 66  1  0
  4 67  1  0
 12  2  1  0
 19 14  1  0
 39 30  1  0
 55 50  1  0
  9  3  1  0
 47 10  1  0
 39 34  1  0
M  END
>  <cnnaffinities>  (4) 
[6.60933, 6.81427, 6.90687, 6.60106, 6.68944]

>  <score>  (4) 
6.60933

>  <index>  (4) 
3

>  <Smiles>  (4) 
O=C1c2c(c(c(Cl)c(c2[C@@]2(C(N1C(c1c(c(nnc1[H])[H])[H])([H])[H])([H])[H])C(=O)N(c1c(nc(c3c(c(c(c(c13)[H])[H])[H])[H])[H])[H])C([C@@]2(C(N(c1c(c(nc(n1)[H])[H])[H])[H])([H])[H])[H])([H])[H])[H])[H])[H]

>  <h>  (4) 
<NA>

>  <Training>  (4) 
True

>  <Success>  (4) 
True

>  <enamine_searched>  (4) 
False

>  <enamine_id>  (4) 
nan

$$$$

     RDKit          3D

 41 44  0  0  0  0  0  0  0  0999 V2000
    8.9721    3.2696   23.0201 C   0  0  0  0  0  0  0  0  0  0  0  0
    9.6163    2.1364   22.2242 C   0  0  1  0  0  0  0  0  0  0  0  0
   10.9780    1.8377   22.7460 C   0  0  0  0  0  0  0  0  0  0  0  0
   12.1878    2.5084   22.3872 C   0  0  0  0  0  0  0  0  0  0  0  0
   13.2740    1.9695   22.9912 C   0  0  0  0  0  0  0  0  0  0  0  0
   12.8193    0.7356   24.1114 S   0  0  0  0  0  0  0  0  0  0  0  0
   11.1532    0.8577   23.6682 C   0  0  0  0  0  0  0  0  0  0  0  0
   10.0029    0.0251   24.1711 C   0  0  0  0  0  0  0  0  0  0  0  0
    9.0233   -0.2508   23.0228 C   0  0  0  0  0  0  0  0  0  0  0  0
    8.7843    0.9224   22.1753 N   0  0  0  0  0  0  0  0  0  0  0  0
    7.8125    0.9354   21.2076 C   0  0  0  0  0  0  0  0  0  0  0  0
    7.6808    1.8925   20.4618 O   0  0  0  0  0  0  0  0  0  0  0  0
    6.9130   -0.3054   21.0777 C   0  0  0  0  0  0  0  0  0  0  0  0
    5.8845   -0.1691   19.9838 C   0  0  0  0  0  0  0  0  0  0  0  0
    6.0617   -0.7884   18.7735 C   0  0  0  0  0  0  0  0  0  0  0  0
    5.2526   -0.6500   17.6911 N   0  0  0  0  0  0  0  0  0  0  0  0
    4.1903    0.1024   17.8359 C   0  0  0  0  0  0  0  0  0  0  0  0
    3.8388    0.7601   19.0443 C   0  0  0  0  0  0  0  0  0  0  0  0
    2.6609    1.5385   19.1646 C   0  0  0  0  0  0  0  0  0  0  0  0
    2.3506    2.1574   20.3424 C   0  0  0  0  0  0  0  0  0  0  0  0
    3.2295    2.0542   21.4429 C   0  0  0  0  0  0  0  0  0  0  0  0
    4.3866    1.3202   21.3470 C   0  0  0  0  0  0  0  0  0  0  0  0
    4.7169    0.6379   20.1468 C   0  0  0  0  0  0  0  0  0  0  0  0
    5.0713    1.2624   22.1881 H   0  0  0  0  0  0  0  0  0  0  0  0
    2.9944    2.5760   22.3660 H   0  0  0  0  0  0  0  0  0  0  0  0
    1.4360    2.7385   20.4290 H   0  0  0  0  0  0  0  0  0  0  0  0
    2.0210    1.6482   18.2956 H   0  0  0  0  0  0  0  0  0  0  0  0
    3.5237    0.1840   16.9768 H   0  0  0  0  0  0  0  0  0  0  0  0
    6.9071   -1.4551   18.6008 H   0  0  0  0  0  0  0  0  0  0  0  0
    7.5592   -1.1648   20.8552 H   0  0  0  0  0  0  0  0  0  0  0  0
    6.4439   -0.5220   22.0481 H   0  0  0  0  0  0  0  0  0  0  0  0
    9.4008   -1.0888   22.4139 H   0  0  0  0  0  0  0  0  0  0  0  0
    8.0605   -0.5553   23.4479 H   0  0  0  0  0  0  0  0  0  0  0  0
    9.4739    0.5689   24.9712 H   0  0  0  0  0  0  0  0  0  0  0  0
   10.3315   -0.9342   24.5878 H   0  0  0  0  0  0  0  0  0  0  0  0
   14.3181    2.2209   22.8276 H   0  0  0  0  0  0  0  0  0  0  0  0
   12.2484    3.3761   21.7397 H   0  0  0  0  0  0  0  0  0  0  0  0
    9.7039    2.4610   21.1815 H   0  0  0  0  0  0  0  0  0  0  0  0
    8.0212    3.5699   22.5731 H   0  0  0  0  0  0  0  0  0  0  0  0
    9.6659    4.1167   23.0016 H   0  0  0  0  0  0  0  0  0  0  0  0
    8.8328    2.9608   24.0627 H   0  0  0  0  0  0  0  0  0  0  0  0
  1  2  1  0
  2  3  1  0
  3  4  1  0
  4  5  2  0
  5  6  1  0
  6  7  1  0
  7  8  1  0
  8  9  1  0
  9 10  1  0
 10 11  1  0
 11 12  2  0
 11 13  1  0
 13 14  1  0
 14 15  2  0
 15 16  1  0
 16 17  2  0
 17 18  1  0
 18 19  2  0
 19 20  1  0
 20 21  2  0
 21 22  1  0
 22 23  2  0
 22 24  1  0
 21 25  1  0
 20 26  1  0
 19 27  1  0
 17 28  1  0
 15 29  1  0
 13 30  1  0
 13 31  1  0
  9 32  1  0
  9 33  1  0
  8 34  1  0
  8 35  1  0
  5 36  1  0
  4 37  1  0
  2 38  1  6
  1 39  1  0
  1 40  1  0
  1 41  1  0
 10  2  1  0
 23 14  1  0
  7  3  2  0
 23 18  1  0
M  END
>  <cnnaffinities>  (5) 
[5.40567, 5.31416]

>  <score>  (5) 
5.40567

>  <index>  (5) 
4

>  <Smiles>  (5) 
C([C@]1(c2c(c(sc2C(C(N1C(=O)C(c1c(nc(c2c(c(c(c(c12)[H])[H])[H])[H])[H])[H])([H])[H])([H])[H])([H])[H])[H])[H])[H])([H])([H])[H]

>  <h>  (5) 
<NA>

>  <Training>  (5) 
True

>  <Success>  (5) 
True

>  <enamine_searched>  (5) 
False

>  <enamine_id>  (5) 
nan

$$$$

     RDKit          3D

 50 54  0  0  0  0  0  0  0  0999 V2000
   10.0801    0.6763   22.4301 C   0  0  0  0  0  0  0  0  0  0  0  0
    8.6430    0.1613   22.4139 C   0  0  1  0  0  0  0  0  0  0  0  0
    7.8096    0.7188   21.2513 C   0  0  0  0  0  0  0  0  0  0  0  0
    6.8068   -0.3103   21.0194 N   0  0  0  0  0  0  0  0  0  0  0  0
    5.8539   -0.2033   19.9772 C   0  0  0  0  0  0  0  0  0  0  0  0
    6.0548   -0.8281   18.7711 C   0  0  0  0  0  0  0  0  0  0  0  0
    5.2548   -0.6601   17.6889 N   0  0  0  0  0  0  0  0  0  0  0  0
    4.1954    0.0984   17.8386 C   0  0  0  0  0  0  0  0  0  0  0  0
    3.8340    0.7515   19.0525 C   0  0  0  0  0  0  0  0  0  0  0  0
    2.6531    1.5286   19.1788 C   0  0  0  0  0  0  0  0  0  0  0  0
    2.3449    2.1328   20.3660 C   0  0  0  0  0  0  0  0  0  0  0  0
    3.2127    2.0137   21.4753 C   0  0  0  0  0  0  0  0  0  0  0  0
    4.3682    1.2762   21.3757 C   0  0  0  0  0  0  0  0  0  0  0  0
    4.6970    0.6170   20.1609 C   0  0  0  0  0  0  0  0  0  0  0  0
    5.0394    1.1862   22.2242 H   0  0  0  0  0  0  0  0  0  0  0  0
    2.9648    2.5129   22.4077 H   0  0  0  0  0  0  0  0  0  0  0  0
    1.4282    2.7087   20.4620 H   0  0  0  0  0  0  0  0  0  0  0  0
    2.0144    1.6488   18.3105 H   0  0  0  0  0  0  0  0  0  0  0  0
    3.5378    0.2006   16.9767 H   0  0  0  0  0  0  0  0  0  0  0  0
    6.9040   -1.4927   18.6246 H   0  0  0  0  0  0  0  0  0  0  0  0
    7.1678   -1.5431   21.5190 C   0  0  0  0  0  0  0  0  0  0  0  0
    6.5426   -2.5667   21.3195 O   0  0  0  0  0  0  0  0  0  0  0  0
    8.4633   -1.3944   22.3314 C   0  0  1  0  0  0  0  0  0  0  0  0
    9.5636   -2.1182   21.5390 C   0  0  0  0  0  0  0  0  0  0  0  0
   10.7918   -2.2490   22.3168 N   0  0  0  0  0  0  0  0  0  0  0  0
   12.0860   -2.1675   21.6799 C   0  0  0  0  0  0  0  0  0  0  0  0
   12.9216   -0.9933   22.0238 C   0  0  0  0  0  0  0  0  0  0  0  0
   13.7064   -0.1982   22.3305 N   0  0  0  0  0  0  0  0  0  0  0  0
   11.9765   -2.2879   20.5992 H   0  0  0  0  0  0  0  0  0  0  0  0
   12.6962   -2.9763   22.0693 H   0  0  0  0  0  0  0  0  0  0  0  0
   10.7897   -2.7358   23.6056 C   0  0  0  0  0  0  0  0  0  0  0  0
   11.7957   -3.1669   24.1459 O   0  0  0  0  0  0  0  0  0  0  0  0
    9.4757   -2.6488   24.3059 C   0  0  0  0  0  0  0  0  0  0  0  0
    9.3943   -3.1508   25.6043 C   0  0  0  0  0  0  0  0  0  0  0  0
    8.2124   -3.0458   26.3172 C   0  0  0  0  0  0  0  0  0  0  0  0
    7.1235   -2.4203   25.7177 C   0  0  0  0  0  0  0  0  0  0  0  0
    5.9762   -2.3078   26.4100 F   0  0  0  0  0  0  0  0  0  0  0  0
    7.1838   -1.9107   24.4350 C   0  0  0  0  0  0  0  0  0  0  0  0
    8.3697   -2.0350   23.7031 C   0  0  0  0  0  0  0  0  0  0  0  0
    6.3086   -1.4281   24.0102 H   0  0  0  0  0  0  0  0  0  0  0  0
    8.1140   -3.4240   27.3281 H   0  0  0  0  0  0  0  0  0  0  0  0
   10.2851   -3.6096   26.0285 H   0  0  0  0  0  0  0  0  0  0  0  0
    9.1604   -3.1028   21.2602 H   0  0  0  0  0  0  0  0  0  0  0  0
    9.7747   -1.5500   20.6261 H   0  0  0  0  0  0  0  0  0  0  0  0
    8.4234    0.8795   20.3519 H   0  0  0  0  0  0  0  0  0  0  0  0
    7.3374    1.6742   21.5031 H   0  0  0  0  0  0  0  0  0  0  0  0
    8.1504    0.4628   23.3490 H   0  0  0  0  0  0  0  0  0  0  0  0
   10.6463    0.2437   23.2597 H   0  0  0  0  0  0  0  0  0  0  0  0
   10.6034    0.4223   21.5036 H   0  0  0  0  0  0  0  0  0  0  0  0
   10.1013    1.7637   22.5331 H   0  0  0  0  0  0  0  0  0  0  0  0
  1  2  1  0
  2  3  1  0
  3  4  1  0
  4  5  1  0
  5  6  2  0
  6  7  1  0
  7  8  2  0
  8  9  1  0
  9 10  2  0
 10 11  1  0
 11 12  2  0
 12 13  1  0
 13 14  2  0
 13 15  1  0
 12 16  1  0
 11 17  1  0
 10 18  1  0
  8 19  1  0
  6 20  1  0
  4 21  1  0
 21 22  2  0
 21 23  1  0
 23 24  1  6
 24 25  1  0
 25 26  1  0
 26 27  1  0
 27 28  3  0
 26 29  1  0
 26 30  1  0
 25 31  1  0
 31 32  2  0
 31 33  1  0
 33 34  2  0
 34 35  1  0
 35 36  2  0
 36 37  1  0
 36 38  1  0
 38 39  2  0
 38 40  1  0
 35 41  1  0
 34 42  1  0
 24 43  1  0
 24 44  1  0
  3 45  1  0
  3 46  1  0
  2 47  1  1
  1 48  1  0
  1 49  1  0
  1 50  1  0
 23  2  1  0
 39 33  1  0
 14  5  1  0
 39 23  1  0
 14  9  1  0
M  END
>  <cnnaffinities>  (6) 
[6.25598]

>  <score>  (6) 
6.25598

>  <index>  (6) 
5

>  <Smiles>  (6) 
C([C@]1(C(N(c2c(nc(c3c(c(c(c(c23)[H])[H])[H])[H])[H])[H])C(=O)[C@]21C(N(C(C#N)([H])[H])C(=O)c1c(c(c(F)c(c21)[H])[H])[H])([H])[H])([H])[H])[H])([H])([H])[H]

>  <h>  (6) 
<NA>

>  <Training>  (6) 
True

>  <Success>  (6) 
True

>  <enamine_searched>  (6) 
False

>  <enamine_id>  (6) 
nan

$$$$

     RDKit          3D

 65 69  0  0  0  0  0  0  0  0999 V2000
    6.7814    6.1007   20.9171 C   0  0  0  0  0  0  0  0  0  0  0  0
    7.8244    7.0882   21.4310 C   0  0  0  0  0  0  0  0  0  0  0  0
    8.0228    7.1259   22.9292 C   0  0  0  0  0  0  0  0  0  0  0  0
    8.2151    8.1263   23.5744 O   0  0  0  0  0  0  0  0  0  0  0  0
    7.9915    5.8499   23.6783 N   0  0  1  0  0  4  0  0  0  0  0  0
    6.5634    5.4982   24.1857 C   0  0  0  0  0  0  0  0  0  0  0  0
    6.5762    4.0809   24.6924 C   0  0  0  0  0  0  0  0  0  0  0  0
    6.9755    3.1225   23.5778 C   0  0  0  0  0  0  0  0  0  0  0  0
    8.3542    3.4279   23.0311 C   0  0  0  0  0  0  0  0  0  0  0  0
    9.1766    2.4521   22.4325 C   0  0  0  0  0  0  0  0  0  0  0  0
    8.6705    1.1366   22.1694 N   0  0  0  0  0  0  0  0  0  0  0  0
    9.1355    0.0762   23.0528 C   0  0  0  0  0  0  0  0  0  0  0  0
   10.5552   -0.3869   22.7724 C   0  0  0  0  0  0  0  0  0  0  0  0
   11.5563   -0.1075   23.7033 C   0  0  0  0  0  0  0  0  0  0  0  0
   12.8817   -0.4412   23.4551 C   0  0  0  0  0  0  0  0  0  0  0  0
   13.2305   -1.1249   22.2987 C   0  0  0  0  0  0  0  0  0  0  0  0
   12.2199   -1.4723   21.4135 C   0  0  0  0  0  0  0  0  0  0  0  0
   12.6338   -2.4413   20.0341 Cl  0  0  0  0  0  0  0  0  0  0  0  0
   10.8982   -1.0859   21.6144 C   0  0  0  0  0  0  0  0  0  0  0  0
   10.1573   -1.3384   20.8609 H   0  0  0  0  0  0  0  0  0  0  0  0
   14.2569   -1.3996   22.0850 H   0  0  0  0  0  0  0  0  0  0  0  0
   13.6537   -0.1772   24.1690 H   0  0  0  0  0  0  0  0  0  0  0  0
   11.3075    0.4015   24.6290 H   0  0  0  0  0  0  0  0  0  0  0  0
    8.4470   -0.7723   22.9996 H   0  0  0  0  0  0  0  0  0  0  0  0
    9.1129    0.4714   24.0775 H   0  0  0  0  0  0  0  0  0  0  0  0
    7.7542    1.0152   21.1413 C   0  0  0  0  0  0  0  0  0  0  0  0
    7.5991    1.9074   20.3315 O   0  0  0  0  0  0  0  0  0  0  0  0
    6.9229   -0.2778   21.0787 C   0  0  0  0  0  0  0  0  0  0  0  0
    5.8909   -0.1821   19.9968 C   0  0  0  0  0  0  0  0  0  0  0  0
    6.0989   -0.7737   18.7795 C   0  0  0  0  0  0  0  0  0  0  0  0
    5.2922   -0.6421   17.6937 N   0  0  0  0  0  0  0  0  0  0  0  0
    4.2237    0.1060   17.8386 C   0  0  0  0  0  0  0  0  0  0  0  0
    3.8689    0.7652   19.0472 C   0  0  0  0  0  0  0  0  0  0  0  0
    2.7043    1.5647   19.1579 C   0  0  0  0  0  0  0  0  0  0  0  0
    2.3759    2.1641   20.3433 C   0  0  0  0  0  0  0  0  0  0  0  0
    3.2329    2.0332   21.4597 C   0  0  0  0  0  0  0  0  0  0  0  0
    4.3850    1.2911   21.3684 C   0  0  0  0  0  0  0  0  0  0  0  0
    4.7259    0.6227   20.1622 C   0  0  0  0  0  0  0  0  0  0  0  0
    5.0478    1.2265   22.2280 H   0  0  0  0  0  0  0  0  0  0  0  0
    2.9771    2.5294   22.3884 H   0  0  0  0  0  0  0  0  0  0  0  0
    1.4649    2.7449   20.4352 H   0  0  0  0  0  0  0  0  0  0  0  0
    2.0843    1.7040   18.2797 H   0  0  0  0  0  0  0  0  0  0  0  0
    3.5618    0.2034   16.9762 H   0  0  0  0  0  0  0  0  0  0  0  0
    6.9768   -1.4015   18.6269 H   0  0  0  0  0  0  0  0  0  0  0  0
    6.4617   -0.4518   22.0607 H   0  0  0  0  0  0  0  0  0  0  0  0
    7.6110   -1.1134   20.8854 H   0  0  0  0  0  0  0  0  0  0  0  0
   10.5032    2.7301   22.1308 C   0  0  0  0  0  0  0  0  0  0  0  0
   10.9941    4.0236   22.2724 C   0  0  0  0  0  0  0  0  0  0  0  0
   10.1697    5.0224   22.7756 C   0  0  0  0  0  0  0  0  0  0  0  0
    8.8519    4.7235   23.1289 C   0  0  0  0  0  0  0  0  0  0  0  0
   10.5598    6.0297   22.9089 H   0  0  0  0  0  0  0  0  0  0  0  0
   12.0153    4.2509   21.9715 H   0  0  0  0  0  0  0  0  0  0  0  0
   11.1542    1.9275   21.8022 H   0  0  0  0  0  0  0  0  0  0  0  0
    6.9436    2.0861   23.9336 H   0  0  0  0  0  0  0  0  0  0  0  0
    6.2535    3.2026   22.7533 H   0  0  0  0  0  0  0  0  0  0  0  0
    5.5839    3.8281   25.0752 H   0  0  0  0  0  0  0  0  0  0  0  0
    7.2742    3.9928   25.5329 H   0  0  0  0  0  0  0  0  0  0  0  0
    5.8629    5.6092   23.3535 H   0  0  0  0  0  0  0  0  0  0  0  0
    6.2909    6.2126   24.9680 H   0  0  0  0  0  0  0  0  0  0  0  0
    8.4811    6.1390   24.5656 H   0  0  0  0  0  0  0  0  0  0  0  0
    8.8090    6.8331   21.0145 H   0  0  0  0  0  0  0  0  0  0  0  0
    7.5586    8.1098   21.1418 H   0  0  0  0  0  0  0  0  0  0  0  0
    5.7628    6.3881   21.1993 H   0  0  0  0  0  0  0  0  0  0  0  0
    6.9846    5.0814   21.2679 H   0  0  0  0  0  0  0  0  0  0  0  0
    6.8147    6.0908   19.8296 H   0  0  0  0  0  0  0  0  0  0  0  0
  1  2  1  0
  2  3  1  0
  3  4  2  0
  3  5  1  0
  5  6  1  0
  6  7  1  0
  7  8  1  0
  8  9  1  0
  9 10  2  0
 10 11  1  0
 11 12  1  0
 12 13  1  0
 13 14  2  0
 14 15  1  0
 15 16  2  0
 16 17  1  0
 17 18  1  0
 17 19  2  0
 19 20  1  0
 16 21  1  0
 15 22  1  0
 14 23  1  0
 12 24  1  0
 12 25  1  0
 11 26  1  0
 26 27  2  0
 26 28  1  0
 28 29  1  0
 29 30  2  0
 30 31  1  0
 31 32  2  0
 32 33  1  0
 33 34  2  0
 34 35  1  0
 35 36  2  0
 36 37  1  0
 37 38  2  0
 37 39  1  0
 36 40  1  0
 35 41  1  0
 34 42  1  0
 32 43  1  0
 30 44  1  0
 28 45  1  0
 28 46  1  0
 10 47  1  0
 47 48  2  0
 48 49  1  0
 49 50  2  0
 49 51  1  0
 48 52  1  0
 47 53  1  0
  8 54  1  0
  8 55  1  0
  7 56  1  0
  7 57  1  0
  6 58  1  0
  6 59  1  0
  5 60  1  1
  2 61  1  0
  2 62  1  0
  1 63  1  0
  1 64  1  0
  1 65  1  0
 50  5  1  0
 50  9  1  0
 19 13  1  0
 38 29  1  0
 38 33  1  0
M  CHG  1   5   1
M  END
>  <cnnaffinities>  (7) 
[6.28992]

>  <score>  (7) 
6.28992

>  <index>  (7) 
6

>  <Smiles>  (7) 
C(C(C(=O)[N@+]1(C(C(C(c2c(N(C(c3c(c(c(c(Cl)c3[H])[H])[H])[H])([H])[H])C(=O)C(c3c(nc(c4c(c(c(c(c34)[H])[H])[H])[H])[H])[H])([H])[H])c(c(c(c12)[H])[H])[H])([H])[H])([H])[H])([H])[H])[H])([H])[H])([H])([H])[H]

>  <h>  (7) 
<NA>

>  <Training>  (7) 
True

>  <Success>  (7) 
True

>  <enamine_searched>  (7) 
False

>  <enamine_id>  (7) 
nan

$$$$

     RDKit          3D

 37 39  0  0  0  0  0  0  0  0999 V2000
    5.3320   -1.8043   22.1518 O   0  0  0  0  0  0  0  0  0  0  0  0
    6.5018   -1.4924   22.0337 C   0  0  0  0  0  0  0  0  0  0  0  0
    6.9040   -0.3619   21.0595 C   0  0  0  0  0  0  0  0  0  0  0  0
    5.8720   -0.1735   19.9740 C   0  0  0  0  0  0  0  0  0  0  0  0
    6.0345   -0.8029   18.7694 C   0  0  0  0  0  0  0  0  0  0  0  0
    5.2190   -0.6764   17.6910 N   0  0  0  0  0  0  0  0  0  0  0  0
    4.1615    0.0859   17.8306 C   0  0  0  0  0  0  0  0  0  0  0  0
    3.8204    0.7440   19.0423 C   0  0  0  0  0  0  0  0  0  0  0  0
    2.6340    1.5087   19.1713 C   0  0  0  0  0  0  0  0  0  0  0  0
    2.3168    2.1248   20.3505 C   0  0  0  0  0  0  0  0  0  0  0  0
    3.1920    2.0136   21.4524 C   0  0  0  0  0  0  0  0  0  0  0  0
    4.3502    1.2801   21.3538 C   0  0  0  0  0  0  0  0  0  0  0  0
    4.6963    0.6167   20.1479 C   0  0  0  0  0  0  0  0  0  0  0  0
    5.0036    1.1911   22.2135 H   0  0  0  0  0  0  0  0  0  0  0  0
    2.9435    2.5200   22.3800 H   0  0  0  0  0  0  0  0  0  0  0  0
    1.4033    2.7098   20.4372 H   0  0  0  0  0  0  0  0  0  0  0  0
    1.9862    1.6132   18.3107 H   0  0  0  0  0  0  0  0  0  0  0  0
    3.5084    0.1975   16.9612 H   0  0  0  0  0  0  0  0  0  0  0  0
    6.8702   -1.4836   18.6166 H   0  0  0  0  0  0  0  0  0  0  0  0
    7.8711   -0.5983   20.5892 H   0  0  0  0  0  0  0  0  0  0  0  0
    7.0402    0.5775   21.6130 H   0  0  0  0  0  0  0  0  0  0  0  0
    7.5014   -2.1496   22.7247 N   0  0  0  0  0  0  0  0  0  0  0  0
    7.3077   -3.5620   23.0392 C   0  0  0  0  0  0  0  0  0  0  0  0
    7.8504   -3.9180   24.4149 C   0  0  0  0  0  0  0  0  0  0  0  0
    9.2991   -3.4744   24.5668 C   0  0  0  0  0  0  0  0  0  0  0  0
    9.4082   -1.9852   24.2721 C   0  0  0  0  0  0  0  0  0  0  0  0
    8.8519   -1.6397   22.8935 C   0  0  0  0  0  0  0  0  0  0  0  0
    9.5280   -2.0441   22.1253 H   0  0  0  0  0  0  0  0  0  0  0  0
    8.8331   -0.5579   22.7686 H   0  0  0  0  0  0  0  0  0  0  0  0
    8.8647   -1.4193   25.0336 H   0  0  0  0  0  0  0  0  0  0  0  0
   10.4489   -1.6572   24.3328 H   0  0  0  0  0  0  0  0  0  0  0  0
    9.6686   -3.6995   25.5738 H   0  0  0  0  0  0  0  0  0  0  0  0
    9.9362   -4.0376   23.8728 H   0  0  0  0  0  0  0  0  0  0  0  0
    7.7602   -4.9962   24.5801 H   0  0  0  0  0  0  0  0  0  0  0  0
    7.2337   -3.4395   25.1806 H   0  0  0  0  0  0  0  0  0  0  0  0
    7.8077   -4.1892   22.2845 H   0  0  0  0  0  0  0  0  0  0  0  0
    6.2412   -3.7675   22.9709 H   0  0  0  0  0  0  0  0  0  0  0  0
  1  2  2  0
  2  3  1  0
  3  4  1  0
  4  5  2  0
  5  6  1  0
  6  7  2  0
  7  8  1  0
  8  9  2  0
  9 10  1  0
 10 11  2  0
 11 12  1  0
 12 13  2  0
 12 14  1  0
 11 15  1  0
 10 16  1  0
  9 17  1  0
  7 18  1  0
  5 19  1  0
  3 20  1  0
  3 21  1  0
  2 22  1  0
 22 23  1  0
 23 24  1  0
 24 25  1  0
 25 26  1  0
 26 27  1  0
 27 28  1  0
 27 29  1  0
 26 30  1  0
 26 31  1  0
 25 32  1  0
 25 33  1  0
 24 34  1  0
 24 35  1  0
 23 36  1  0
 23 37  1  0
 13  4  1  0
 27 22  1  0
 13  8  1  0
M  END
>  <cnnaffinities>  (8) 
[4.79977, 4.87201, 4.54511, 4.97761, 4.97761, 5.06581, 5.06578]

>  <score>  (8) 
4.79977

>  <index>  (8) 
7

>  <Smiles>  (8) 
O=C(C(c1c(nc(c2c(c(c(c(c12)[H])[H])[H])[H])[H])[H])([H])[H])N1C(C(C(C(C1([H])[H])([H])[H])([H])[H])([H])[H])([H])[H]

>  <h>  (8) 
<NA>

>  <Training>  (8) 
True

>  <Success>  (8) 
True

>  <enamine_searched>  (8) 
False

>  <enamine_id>  (8) 
nan

$$$$

     RDKit          3D

 66 71  0  0  0  0  0  0  0  0999 V2000
    9.8371   -1.5725   21.9330 C   0  0  0  0  0  0  0  0  0  0  0  0
    8.7866   -0.5001   22.2469 C   0  0  1  0  0  0  0  0  0  0  0  0
    8.1316   -0.0313   20.9335 C   0  0  0  0  0  0  0  0  0  0  0  0
    6.7523   -0.4474   21.0374 N   0  0  0  0  0  0  0  0  0  0  0  0
    5.8468   -0.2159   19.9892 C   0  0  0  0  0  0  0  0  0  0  0  0
    6.0889   -0.7675   18.7588 C   0  0  0  0  0  0  0  0  0  0  0  0
    5.2890   -0.6129   17.6812 N   0  0  0  0  0  0  0  0  0  0  0  0
    4.2125    0.1217   17.8428 C   0  0  0  0  0  0  0  0  0  0  0  0
    3.8589    0.7619   19.0669 C   0  0  0  0  0  0  0  0  0  0  0  0
    2.6920    1.5596   19.1785 C   0  0  0  0  0  0  0  0  0  0  0  0
    2.3812    2.1745   20.3592 C   0  0  0  0  0  0  0  0  0  0  0  0
    3.2503    2.0671   21.4672 C   0  0  0  0  0  0  0  0  0  0  0  0
    4.3996    1.3217   21.3880 C   0  0  0  0  0  0  0  0  0  0  0  0
    4.7060    0.6167   20.1829 C   0  0  0  0  0  0  0  0  0  0  0  0
    5.0737    1.2720   22.2432 H   0  0  0  0  0  0  0  0  0  0  0  0
    3.0106    2.5965   22.3854 H   0  0  0  0  0  0  0  0  0  0  0  0
    1.4749    2.7660   20.4432 H   0  0  0  0  0  0  0  0  0  0  0  0
    2.0718    1.6829   18.2990 H   0  0  0  0  0  0  0  0  0  0  0  0
    3.5543    0.2337   16.9818 H   0  0  0  0  0  0  0  0  0  0  0  0
    6.9704   -1.3943   18.6273 H   0  0  0  0  0  0  0  0  0  0  0  0
    6.4068   -1.0486   22.2188 C   0  0  0  0  0  0  0  0  0  0  0  0
    5.3334   -1.5828   22.4489 O   0  0  0  0  0  0  0  0  0  0  0  0
    7.6011   -0.9306   23.1821 C   0  0  1  0  0  0  0  0  0  0  0  0
    7.8151   -2.2972   23.8549 C   0  0  0  0  0  0  0  0  0  0  0  0
    6.8082   -2.5447   24.8682 N   0  0  0  0  0  0  0  0  0  0  0  0
    6.2702   -3.8806   25.0160 C   0  0  0  0  0  0  0  0  0  0  0  0
    4.8498   -3.9190   25.5654 C   0  0  0  0  0  0  0  0  0  0  0  0
    4.6095   -4.5989   26.5493 O   0  0  0  0  0  0  0  0  0  0  0  0
    3.8650   -3.2361   24.8941 N   0  0  0  0  0  0  0  0  0  0  0  0
    2.6646   -2.9967   25.6968 C   0  0  0  0  0  0  0  0  0  0  0  0
    2.8727   -1.8463   26.6379 C   0  0  0  0  0  0  0  0  0  0  0  0
    2.9439   -1.8274   28.0155 C   0  0  0  0  0  0  0  0  0  0  0  0
    3.1941   -0.4826   28.3426 C   0  0  0  0  0  0  0  0  0  0  0  0
    3.3058    0.2686   27.2544 N   0  0  0  0  0  0  0  0  0  0  0  0
    3.1074   -0.5709   26.2239 N   0  0  0  0  0  0  0  0  0  0  0  0
    3.2200   -0.0306   24.8802 C   0  0  0  0  0  0  0  0  0  0  0  0
    4.2094   -0.2331   24.4512 H   0  0  0  0  0  0  0  0  0  0  0  0
    3.0849    1.0496   24.9727 H   0  0  0  0  0  0  0  0  0  0  0  0
    2.4418   -0.4584   24.2404 H   0  0  0  0  0  0  0  0  0  0  0  0
    3.2872   -0.0306   29.3220 H   0  0  0  0  0  0  0  0  0  0  0  0
    2.8861   -2.6830   28.6765 H   0  0  0  0  0  0  0  0  0  0  0  0
    2.5113   -3.9071   26.2827 H   0  0  0  0  0  0  0  0  0  0  0  0
    1.7595   -2.8700   25.0884 H   0  0  0  0  0  0  0  0  0  0  0  0
    4.1143   -2.5847   24.1449 H   0  0  0  0  0  0  0  0  0  0  0  0
    6.8701   -4.5025   25.6941 H   0  0  0  0  0  0  0  0  0  0  0  0
    6.2772   -4.3477   24.0203 H   0  0  0  0  0  0  0  0  0  0  0  0
    6.7291   -1.6631   25.9218 C   0  0  0  0  0  0  0  0  0  0  0  0
    6.4777   -2.0046   27.0647 O   0  0  0  0  0  0  0  0  0  0  0  0
    6.9255   -0.2319   25.5445 C   0  0  0  0  0  0  0  0  0  0  0  0
    6.6575    0.7370   26.5104 C   0  0  0  0  0  0  0  0  0  0  0  0
    6.7302    2.0802   26.1919 C   0  0  0  0  0  0  0  0  0  0  0  0
    7.0684    2.4489   24.8920 C   0  0  0  0  0  0  0  0  0  0  0  0
    7.3304    1.4851   23.9317 C   0  0  0  0  0  0  0  0  0  0  0  0
    7.2893    0.1208   24.2452 C   0  0  0  0  0  0  0  0  0  0  0  0
    7.5894    1.8094   22.9273 H   0  0  0  0  0  0  0  0  0  0  0  0
    7.1427    3.4975   24.6312 H   0  0  0  0  0  0  0  0  0  0  0  0
    6.5138    2.8349   26.9415 H   0  0  0  0  0  0  0  0  0  0  0  0
    6.3915    0.3930   27.5019 H   0  0  0  0  0  0  0  0  0  0  0  0
    7.7423   -3.0775   23.0972 H   0  0  0  0  0  0  0  0  0  0  0  0
    8.8236   -2.3321   24.2928 H   0  0  0  0  0  0  0  0  0  0  0  0
    8.5873   -0.5133   20.0644 H   0  0  0  0  0  0  0  0  0  0  0  0
    8.2123    1.0547   20.7755 H   0  0  0  0  0  0  0  0  0  0  0  0
    9.3188    0.3331   22.7202 H   0  0  0  0  0  0  0  0  0  0  0  0
   10.5787   -1.1585   21.2395 H   0  0  0  0  0  0  0  0  0  0  0  0
    9.3818   -2.4474   21.4543 H   0  0  0  0  0  0  0  0  0  0  0  0
   10.3707   -1.9008   22.8289 H   0  0  0  0  0  0  0  0  0  0  0  0
  1  2  1  0
  2  3  1  0
  3  4  1  0
  4  5  1  0
  5  6  2  0
  6  7  1  0
  7  8  2  0
  8  9  1  0
  9 10  2  0
 10 11  1  0
 11 12  2  0
 12 13  1  0
 13 14  2  0
 13 15  1  0
 12 16  1  0
 11 17  1  0
 10 18  1  0
  8 19  1  0
  6 20  1  0
  4 21  1  0
 21 22  2  0
 21 23  1  0
 23 24  1  1
 24 25  1  0
 25 26  1  0
 26 27  1  0
 27 28  2  0
 27 29  1  0
 29 30  1  0
 30 31  1  0
 31 32  2  0
 32 33  1  0
 33 34  2  0
 34 35  1  0
 35 36  1  0
 36 37  1  0
 36 38  1  0
 36 39  1  0
 33 40  1  0
 32 41  1  0
 30 42  1  0
 30 43  1  0
 29 44  1  0
 26 45  1  0
 26 46  1  0
 25 47  1  0
 47 48  2  0
 47 49  1  0
 49 50  2  0
 50 51  1  0
 51 52  2  0
 52 53  1  0
 53 54  2  0
 53 55  1  0
 52 56  1  0
 51 57  1  0
 50 58  1  0
 24 59  1  0
 24 60  1  0
  3 61  1  0
  3 62  1  0
  2 63  1  1
  1 64  1  0
  1 65  1  0
  1 66  1  0
 23  2  1  0
 35 31  1  0
 54 49  1  0
 14  5  1  0
 54 23  1  0
 14  9  1  0
M  END
>  <cnnaffinities>  (9) 
[6.11294, 6.1907, 6.05909, 6.13699]

>  <score>  (9) 
6.11294

>  <index>  (9) 
8

>  <Smiles>  (9) 
C([C@]1(C(N(c2c(nc(c3c(c(c(c(c23)[H])[H])[H])[H])[H])[H])C(=O)[C@]21C(N(C(C(=O)N(C(c1c(c(nn1C([H])([H])[H])[H])[H])([H])[H])[H])([H])[H])C(=O)c1c(c(c(c(c21)[H])[H])[H])[H])([H])[H])([H])[H])[H])([H])([H])[H]

>  <h>  (9) 
<NA>

>  <Training>  (9) 
True

>  <Success>  (9) 
True

>  <enamine_searched>  (9) 
False

>  <enamine_id>  (9) 
nan

$$$$

     RDKit          3D

 58 63  0  0  0  0  0  0  0  0999 V2000
    7.8058    6.0970   28.2260 C   0  0  0  0  0  0  0  0  0  0  0  0
    7.4291    5.2201   27.0747 C   0  0  0  0  0  0  0  0  0  0  0  0
    7.9339    5.3024   25.7512 C   0  0  0  0  0  0  0  0  0  0  0  0
    7.3442    4.2646   25.1117 C   0  0  0  0  0  0  0  0  0  0  0  0
    7.4514    3.7791   23.6965 C   0  0  0  0  0  0  0  0  0  0  0  0
    8.3903    2.6955   23.5158 N   0  0  0  0  0  0  0  0  0  0  0  0
    7.9696    1.3259   23.7233 C   0  0  0  0  0  0  0  0  0  0  0  0
    8.4485    0.4081   22.5775 C   0  0  2  0  0  0  0  0  0  0  0  0
    7.6808    0.7591   21.2956 C   0  0  0  0  0  0  0  0  0  0  0  0
    7.7348    1.7961   20.6690 O   0  0  0  0  0  0  0  0  0  0  0  0
    6.8756   -0.3014   20.9555 N   0  0  0  0  0  0  0  0  0  0  0  0
    5.8926   -0.1601   19.9523 C   0  0  0  0  0  0  0  0  0  0  0  0
    6.0726   -0.8034   18.7578 C   0  0  0  0  0  0  0  0  0  0  0  0
    5.2548   -0.6686   17.6876 N   0  0  0  0  0  0  0  0  0  0  0  0
    4.1968    0.0968   17.8332 C   0  0  0  0  0  0  0  0  0  0  0  0
    3.8643    0.7753   19.0428 C   0  0  0  0  0  0  0  0  0  0  0  0
    2.6820    1.5529   19.1659 C   0  0  0  0  0  0  0  0  0  0  0  0
    2.3585    2.1506   20.3549 C   0  0  0  0  0  0  0  0  0  0  0  0
    3.2169    2.0283   21.4708 C   0  0  0  0  0  0  0  0  0  0  0  0
    4.3745    1.2926   21.3756 C   0  0  0  0  0  0  0  0  0  0  0  0
    4.7278    0.6454   20.1517 C   0  0  0  0  0  0  0  0  0  0  0  0
    5.0188    1.1994   22.2456 H   0  0  0  0  0  0  0  0  0  0  0  0
    2.9594    2.5216   22.4043 H   0  0  0  0  0  0  0  0  0  0  0  0
    1.4406    2.7265   20.4476 H   0  0  0  0  0  0  0  0  0  0  0  0
    2.0486    1.6744   18.2942 H   0  0  0  0  0  0  0  0  0  0  0  0
    3.5218    0.1915   16.9803 H   0  0  0  0  0  0  0  0  0  0  0  0
    6.9376   -1.4541   18.6275 H   0  0  0  0  0  0  0  0  0  0  0  0
    6.9011   -1.4028   21.8831 C   0  0  0  0  0  0  0  0  0  0  0  0
    8.0803   -1.0884   22.8192 C   0  0  2  0  0  0  0  0  0  0  0  0
    7.7870   -1.5010   24.2615 C   0  0  0  0  0  0  0  0  0  0  0  0
    7.5743   -2.5733   24.3186 H   0  0  0  0  0  0  0  0  0  0  0  0
    8.6282   -1.3003   24.9336 H   0  0  0  0  0  0  0  0  0  0  0  0
    6.9104   -0.9716   24.6498 H   0  0  0  0  0  0  0  0  0  0  0  0
    8.9331   -1.6807   22.4928 H   0  0  0  0  0  0  0  0  0  0  0  0
    5.9575   -1.4678   22.4435 H   0  0  0  0  0  0  0  0  0  0  0  0
    7.0312   -2.3470   21.3419 H   0  0  0  0  0  0  0  0  0  0  0  0
    9.9344    0.6661   22.3863 C   0  0  0  0  0  0  0  0  0  0  0  0
   10.7482   -0.2857   21.7635 C   0  0  0  0  0  0  0  0  0  0  0  0
   12.1118   -0.0715   21.7055 C   0  0  0  0  0  0  0  0  0  0  0  0
   12.8879   -1.0581   21.2227 F   0  0  0  0  0  0  0  0  0  0  0  0
   12.7051    1.1378   22.0563 C   0  0  0  0  0  0  0  0  0  0  0  0
   11.8867    2.1219   22.5784 C   0  0  0  0  0  0  0  0  0  0  0  0
   10.5289    1.8771   22.7811 C   0  0  0  0  0  0  0  0  0  0  0  0
    9.7076    3.0089   23.3046 C   0  0  0  0  0  0  0  0  0  0  0  0
   10.1576    4.1352   23.4640 O   0  0  0  0  0  0  0  0  0  0  0  0
   12.2631    3.1013   22.8560 H   0  0  0  0  0  0  0  0  0  0  0  0
   13.7690    1.2816   21.8880 H   0  0  0  0  0  0  0  0  0  0  0  0
   10.3483   -1.1897   21.3098 H   0  0  0  0  0  0  0  0  0  0  0  0
    8.3923    0.9531   24.6653 H   0  0  0  0  0  0  0  0  0  0  0  0
    6.8772    1.3018   23.8059 H   0  0  0  0  0  0  0  0  0  0  0  0
    6.4785    3.4381   23.3237 H   0  0  0  0  0  0  0  0  0  0  0  0
    7.7982    4.5996   23.0626 H   0  0  0  0  0  0  0  0  0  0  0  0
    6.5730    3.5867   25.9679 O   0  0  0  0  0  0  0  0  0  0  0  0
    6.6212    4.1919   27.2087 N   0  0  0  0  0  0  0  0  0  0  0  0
    8.6656    5.9805   25.3375 H   0  0  0  0  0  0  0  0  0  0  0  0
    7.1605    6.9748   28.3272 H   0  0  0  0  0  0  0  0  0  0  0  0
    8.8306    6.4565   28.0939 H   0  0  0  0  0  0  0  0  0  0  0  0
    7.7620    5.5428   29.1643 H   0  0  0  0  0  0  0  0  0  0  0  0
  1  2  1  0
  2  3  1  0
  3  4  2  0
  4  5  1  0
  5  6  1  0
  6  7  1  0
  8  7  1  1
  8  9  1  0
  9 10  2  0
  9 11  1  0
 11 12  1  0
 12 13  2  0
 13 14  1  0
 14 15  2  0
 15 16  1  0
 16 17  2  0
 17 18  1  0
 18 19  2  0
 19 20  1  0
 20 21  2  0
 20 22  1  0
 19 23  1  0
 18 24  1  0
 17 25  1  0
 15 26  1  0
 13 27  1  0
 11 28  1  0
 28 29  1  0
 29 30  1  0
 30 31  1  0
 30 32  1  0
 30 33  1  0
 29 34  1  6
 28 35  1  0
 28 36  1  0
  8 37  1  0
 37 38  2  0
 38 39  1  0
 39 40  1  0
 39 41  2  0
 41 42  1  0
 42 43  2  0
 43 44  1  0
 44 45  2  0
 42 46  1  0
 41 47  1  0
 38 48  1  0
  7 49  1  0
  7 50  1  0
  5 51  1  0
  5 52  1  0
  4 53  1  0
 53 54  1  0
  3 55  1  0
  1 56  1  0
  1 57  1  0
  1 58  1  0
 54  2  2  0
 44  6  1  0
 29  8  1  0
 43 37  1  0
 21 12  1  0
 21 16  1  0
M  END
>  <cnnaffinities>  (10) 
[6.06447, 6.17484, 6.06375, 5.98897, 6.13699, 6.17443, 6.12298]

>  <score>  (10) 
6.06447

>  <index>  (10) 
9

>  <Smiles>  (10) 
C(c1c(c(C(N2C([C@@]3(C(=O)N(c4c(nc(c5c(c(c(c(c45)[H])[H])[H])[H])[H])[H])C([C@@]3(C([H])([H])[H])[H])([H])[H])c3c(c(F)c(c(c3C2=O)[H])[H])[H])([H])[H])([H])[H])on1)[H])([H])([H])[H]

>  <h>  (10) 
<NA>

>  <Training>  (10) 
True

>  <Success>  (10) 
True

>  <enamine_searched>  (10) 
False

>  <enamine_id>  (10) 
nan

$$$$

     RDKit          3D

 72 77  0  0  0  0  0  0  0  0999 V2000
    5.1825    8.4502   24.5608 C   0  0  0  0  0  0  0  0  0  0  0  0
    5.4965    7.7429   23.2408 C   0  0  1  0  0  0  0  0  0  0  0  0
    6.4473    6.5510   23.4638 C   0  0  0  0  0  0  0  0  0  0  0  0
    6.2399    5.5201   22.3841 N   0  0  0  0  0  4  0  0  0  0  0  0
    7.2918    4.4478   22.2987 C   0  0  0  0  0  0  0  0  0  0  0  0
    7.5893    3.7560   23.6372 C   0  0  0  0  0  0  0  0  0  0  0  0
    8.4864    2.6251   23.4707 N   0  0  0  0  0  0  0  0  0  0  0  0
    8.0175    1.2692   23.6749 C   0  0  0  0  0  0  0  0  0  0  0  0
    8.5087    0.3100   22.5639 C   0  0  2  0  0  0  0  0  0  0  0  0
    7.8018    0.6417   21.2302 C   0  0  0  0  0  0  0  0  0  0  0  0
    8.0144    1.5883   20.4969 O   0  0  0  0  0  0  0  0  0  0  0  0
    6.8517   -0.3216   20.9816 N   0  0  0  0  0  0  0  0  0  0  0  0
    5.8890   -0.1563   19.9548 C   0  0  0  0  0  0  0  0  0  0  0  0
    6.0624   -0.8047   18.7587 C   0  0  0  0  0  0  0  0  0  0  0  0
    5.2378   -0.6675   17.6939 N   0  0  0  0  0  0  0  0  0  0  0  0
    4.1828    0.0949   17.8433 C   0  0  0  0  0  0  0  0  0  0  0  0
    3.8329    0.7568   19.0566 C   0  0  0  0  0  0  0  0  0  0  0  0
    2.6435    1.5248   19.1878 C   0  0  0  0  0  0  0  0  0  0  0  0
    2.3270    2.1222   20.3720 C   0  0  0  0  0  0  0  0  0  0  0  0
    3.1982    2.0091   21.4768 C   0  0  0  0  0  0  0  0  0  0  0  0
    4.3683    1.2912   21.3731 C   0  0  0  0  0  0  0  0  0  0  0  0
    4.7137    0.6377   20.1540 C   0  0  0  0  0  0  0  0  0  0  0  0
    5.0363    1.2184   22.2236 H   0  0  0  0  0  0  0  0  0  0  0  0
    2.9584    2.5121   22.4091 H   0  0  0  0  0  0  0  0  0  0  0  0
    1.4039    2.6969   20.4634 H   0  0  0  0  0  0  0  0  0  0  0  0
    2.0039    1.6403   18.3211 H   0  0  0  0  0  0  0  0  0  0  0  0
    3.5242    0.1870   16.9813 H   0  0  0  0  0  0  0  0  0  0  0  0
    6.9088   -1.4713   18.6113 H   0  0  0  0  0  0  0  0  0  0  0  0
    6.7506   -1.3382   22.0060 C   0  0  0  0  0  0  0  0  0  0  0  0
    8.0444   -1.1624   22.8273 C   0  0  2  0  0  0  0  0  0  0  0  0
    7.8586   -1.5888   24.2889 C   0  0  0  0  0  0  0  0  0  0  0  0
    7.0409   -1.0277   24.7607 H   0  0  0  0  0  0  0  0  0  0  0  0
    7.5974   -2.6524   24.3512 H   0  0  0  0  0  0  0  0  0  0  0  0
    8.7635   -1.4288   24.8878 H   0  0  0  0  0  0  0  0  0  0  0  0
    8.8115   -1.7985   22.3778 H   0  0  0  0  0  0  0  0  0  0  0  0
    5.8551   -1.1923   22.6336 H   0  0  0  0  0  0  0  0  0  0  0  0
    6.6640   -2.3301   21.5460 H   0  0  0  0  0  0  0  0  0  0  0  0
   10.0040    0.5070   22.4057 C   0  0  0  0  0  0  0  0  0  0  0  0
   10.7779   -0.4629   21.7603 C   0  0  0  0  0  0  0  0  0  0  0  0
   12.1403   -0.2764   21.6217 C   0  0  0  0  0  0  0  0  0  0  0  0
   13.0636   -1.5063   20.8075 Cl  0  0  0  0  0  0  0  0  0  0  0  0
   12.7639    0.8950   22.0489 C   0  0  0  0  0  0  0  0  0  0  0  0
   11.9924    1.8892   22.6156 C   0  0  0  0  0  0  0  0  0  0  0  0
   10.6191    1.7130   22.7733 C   0  0  0  0  0  0  0  0  0  0  0  0
    9.8103    2.8797   23.2651 C   0  0  0  0  0  0  0  0  0  0  0  0
   10.3032    3.9902   23.4289 O   0  0  0  0  0  0  0  0  0  0  0  0
   12.4132    2.8381   22.9332 H   0  0  0  0  0  0  0  0  0  0  0  0
   13.8248    1.0383   21.8819 H   0  0  0  0  0  0  0  0  0  0  0  0
   10.3331   -1.3378   21.2986 H   0  0  0  0  0  0  0  0  0  0  0  0
    8.3665    0.8797   24.6457 H   0  0  0  0  0  0  0  0  0  0  0  0
    6.9226    1.2909   23.6627 H   0  0  0  0  0  0  0  0  0  0  0  0
    6.6621    3.3746   24.0822 H   0  0  0  0  0  0  0  0  0  0  0  0
    8.0602    4.4560   24.3346 H   0  0  0  0  0  0  0  0  0  0  0  0
    8.2124    4.9003   21.9141 H   0  0  0  0  0  0  0  0  0  0  0  0
    6.9527    3.7048   21.5696 H   0  0  0  0  0  0  0  0  0  0  0  0
    4.8202    4.9864   22.3997 C   0  0  0  0  0  0  0  0  0  0  0  0
    3.8450    6.0548   22.9135 C   0  0  2  0  0  0  0  0  0  0  0  0
    2.4557    5.8741   22.3247 C   0  0  0  0  0  0  0  0  0  0  0  0
    2.4976    5.9819   21.2346 H   0  0  0  0  0  0  0  0  0  0  0  0
    2.0732    4.8739   22.5633 H   0  0  0  0  0  0  0  0  0  0  0  0
    1.7535    6.6141   22.7212 H   0  0  0  0  0  0  0  0  0  0  0  0
    4.3123    7.3454   22.5505 O   0  0  0  0  0  0  0  0  0  0  0  0
    3.7938    5.9734   24.0109 H   0  0  0  0  0  0  0  0  0  0  0  0
    4.5512    4.6959   21.3764 H   0  0  0  0  0  0  0  0  0  0  0  0
    4.7718    4.0955   23.0347 H   0  0  0  0  0  0  0  0  0  0  0  0
    6.2990    6.0545   21.4966 H   0  0  0  0  0  0  0  0  0  0  0  0
    6.2511    6.0924   24.4415 H   0  0  0  0  0  0  0  0  0  0  0  0
    7.4864    6.8972   23.4494 H   0  0  0  0  0  0  0  0  0  0  0  0
    5.9681    8.4577   22.5524 H   0  0  0  0  0  0  0  0  0  0  0  0
    6.1072    8.7946   25.0398 H   0  0  0  0  0  0  0  0  0  0  0  0
    4.6757    7.7752   25.2619 H   0  0  0  0  0  0  0  0  0  0  0  0
    4.5387    9.3174   24.3939 H   0  0  0  0  0  0  0  0  0  0  0  0
  1  2  1  0
  2  3  1  0
  3  4  1  0
  4  5  1  0
  5  6  1  0
  6  7  1  0
  7  8  1  0
  9  8  1  1
  9 10  1  0
 10 11  2  0
 10 12  1  0
 12 13  1  0
 13 14  2  0
 14 15  1  0
 15 16  2  0
 16 17  1  0
 17 18  2  0
 18 19  1  0
 19 20  2  0
 20 21  1  0
 21 22  2  0
 21 23  1  0
 20 24  1  0
 19 25  1  0
 18 26  1  0
 16 27  1  0
 14 28  1  0
 12 29  1  0
 29 30  1  0
 30 31  1  0
 31 32  1  0
 31 33  1  0
 31 34  1  0
 30 35  1  6
 29 36  1  0
 29 37  1  0
  9 38  1  0
 38 39  2  0
 39 40  1  0
 40 41  1  0
 40 42  2  0
 42 43  1  0
 43 44  2  0
 44 45  1  0
 45 46  2  0
 43 47  1  0
 42 48  1  0
 39 49  1  0
  8 50  1  0
  8 51  1  0
  6 52  1  0
  6 53  1  0
  5 54  1  0
  5 55  1  0
  4 56  1  0
 56 57  1  0
 57 58  1  0
 58 59  1  0
 58 60  1  0
 58 61  1  0
 57 62  1  0
 57 63  1  1
 56 64  1  0
 56 65  1  0
  4 66  1  0
  3 67  1  0
  3 68  1  0
  2 69  1  6
  1 70  1  0
  1 71  1  0
  1 72  1  0
 62  2  1  0
 45  7  1  0
 30  9  1  0
 44 38  1  0
 22 13  1  0
 22 17  1  0
M  CHG  1   4   1
M  END
>  <cnnaffinities>  (11) 
[6.5354]

>  <score>  (11) 
6.5354

>  <index>  (11) 
10

>  <Smiles>  (11) 
C([C@]1(C([N+](C(C(N2C([C@@]3(C(=O)N(c4c(nc(c5c(c(c(c(c45)[H])[H])[H])[H])[H])[H])C([C@@]3(C([H])([H])[H])[H])([H])[H])c3c(c(Cl)c(c(c3C2=O)[H])[H])[H])([H])[H])([H])[H])([H])[H])(C([C@](C([H])([H])[H])(O1)[H])([H])[H])[H])([H])[H])[H])([H])([H])[H]

>  <h>  (11) 
<NA>

>  <Training>  (11) 
True

>  <Success>  (11) 
True

>  <enamine_searched>  (11) 
False

>  <enamine_id>  (11) 
nan

$$$$

     RDKit          3D

 54 57  0  0  0  0  0  0  0  0999 V2000
    9.6036    3.5897   23.8726 C   0  0  0  0  0  0  0  0  0  0  0  0
    8.9760    2.3322   23.8751 O   0  0  0  0  0  0  0  0  0  0  0  0
    9.6911    1.2659   23.4272 C   0  0  0  0  0  0  0  0  0  0  0  0
   11.0051    1.3715   22.9726 C   0  0  0  0  0  0  0  0  0  0  0  0
   11.6557    0.2450   22.4802 C   0  0  0  0  0  0  0  0  0  0  0  0
   10.9968   -0.9734   22.4457 C   0  0  0  0  0  0  0  0  0  0  0  0
    9.6873   -1.0671   22.9158 C   0  0  0  0  0  0  0  0  0  0  0  0
    9.0151    0.0308   23.4315 C   0  0  0  0  0  0  0  0  0  0  0  0
    7.5823   -0.0486   23.9638 C   0  0  2  0  0  0  0  0  0  0  0  0
    7.4982    0.0948   25.5012 C   0  0  0  0  0  0  0  0  0  0  0  0
    7.5946   -1.2021   26.3127 C   0  0  2  0  0  0  0  0  0  0  0  0
    9.0048   -1.7982   26.3806 C   0  0  0  0  0  0  0  0  0  0  0  0
    9.7198   -1.0664   26.7727 H   0  0  0  0  0  0  0  0  0  0  0  0
    9.0237   -2.6760   27.0381 H   0  0  0  0  0  0  0  0  0  0  0  0
    9.3710   -2.1097   25.3977 H   0  0  0  0  0  0  0  0  0  0  0  0
    6.5469   -2.1746   25.7645 C   0  0  0  0  0  0  0  0  0  0  0  0
    6.7422   -2.4391   24.2779 C   0  0  0  0  0  0  0  0  0  0  0  0
    6.8312   -1.2100   23.4816 N   0  0  0  0  0  0  0  0  0  0  0  0
    6.3993   -1.3330   22.1756 C   0  0  0  0  0  0  0  0  0  0  0  0
    5.6931   -2.2674   21.8387 O   0  0  0  0  0  0  0  0  0  0  0  0
    6.8668   -0.3338   21.0975 C   0  0  0  0  0  0  0  0  0  0  0  0
    5.8665   -0.1769   19.9821 C   0  0  0  0  0  0  0  0  0  0  0  0
    6.0393   -0.8061   18.7763 C   0  0  0  0  0  0  0  0  0  0  0  0
    5.2334   -0.6661   17.6903 N   0  0  0  0  0  0  0  0  0  0  0  0
    4.1746    0.0930   17.8309 C   0  0  0  0  0  0  0  0  0  0  0  0
    3.8214    0.7471   19.0431 C   0  0  0  0  0  0  0  0  0  0  0  0
    2.6409    1.5209   19.1682 C   0  0  0  0  0  0  0  0  0  0  0  0
    2.3276    2.1330   20.3496 C   0  0  0  0  0  0  0  0  0  0  0  0
    3.1991    2.0194   21.4542 C   0  0  0  0  0  0  0  0  0  0  0  0
    4.3542    1.2847   21.3576 C   0  0  0  0  0  0  0  0  0  0  0  0
    4.6932    0.6171   20.1497 C   0  0  0  0  0  0  0  0  0  0  0  0
    5.0181    1.2132   22.2152 H   0  0  0  0  0  0  0  0  0  0  0  0
    2.9606    2.5304   22.3820 H   0  0  0  0  0  0  0  0  0  0  0  0
    1.4150    2.7145   20.4399 H   0  0  0  0  0  0  0  0  0  0  0  0
    1.9996    1.6334   18.3028 H   0  0  0  0  0  0  0  0  0  0  0  0
    3.5161    0.1942   16.9665 H   0  0  0  0  0  0  0  0  0  0  0  0
    6.8881   -1.4696   18.6126 H   0  0  0  0  0  0  0  0  0  0  0  0
    7.1381    0.6362   21.5218 H   0  0  0  0  0  0  0  0  0  0  0  0
    7.7963   -0.7492   20.6838 H   0  0  0  0  0  0  0  0  0  0  0  0
    7.6351   -3.0679   24.1229 H   0  0  0  0  0  0  0  0  0  0  0  0
    5.8992   -2.9957   23.8680 H   0  0  0  0  0  0  0  0  0  0  0  0
    6.5932   -3.1307   26.3069 H   0  0  0  0  0  0  0  0  0  0  0  0
    5.5448   -1.7516   25.9222 H   0  0  0  0  0  0  0  0  0  0  0  0
    7.2998   -0.9496   27.3415 H   0  0  0  0  0  0  0  0  0  0  0  0
    6.5294    0.5622   25.7258 H   0  0  0  0  0  0  0  0  0  0  0  0
    8.2792    0.7967   25.8112 H   0  0  0  0  0  0  0  0  0  0  0  0
    7.0673    0.8387   23.5771 H   0  0  0  0  0  0  0  0  0  0  0  0
    9.1774   -2.0285   22.8952 H   0  0  0  0  0  0  0  0  0  0  0  0
   11.4851   -1.8646   22.0668 H   0  0  0  0  0  0  0  0  0  0  0  0
   12.6785    0.3304   22.1210 H   0  0  0  0  0  0  0  0  0  0  0  0
   11.5190    2.3252   22.9882 H   0  0  0  0  0  0  0  0  0  0  0  0
    9.7558    3.9684   22.8519 H   0  0  0  0  0  0  0  0  0  0  0  0
    8.9198    4.2461   24.4108 H   0  0  0  0  0  0  0  0  0  0  0  0
   10.5735    3.5488   24.3899 H   0  0  0  0  0  0  0  0  0  0  0  0
  1  2  1  0
  2  3  1  0
  3  4  2  0
  4  5  1  0
  5  6  2  0
  6  7  1  0
  7  8  2  0
  8  9  1  0
  9 10  1  0
 10 11  1  0
 11 12  1  0
 12 13  1  0
 12 14  1  0
 12 15  1  0
 11 16  1  0
 16 17  1  0
 17 18  1  0
 18 19  1  0
 19 20  2  0
 19 21  1  0
 21 22  1  0
 22 23  2  0
 23 24  1  0
 24 25  2  0
 25 26  1  0
 26 27  2  0
 27 28  1  0
 28 29  2  0
 29 30  1  0
 30 31  2  0
 30 32  1  0
 29 33  1  0
 28 34  1  0
 27 35  1  0
 25 36  1  0
 23 37  1  0
 21 38  1  0
 21 39  1  0
 17 40  1  0
 17 41  1  0
 16 42  1  0
 16 43  1  0
 11 44  1  1
 10 45  1  0
 10 46  1  0
  9 47  1  6
  7 48  1  0
  6 49  1  0
  5 50  1  0
  4 51  1  0
  1 52  1  0
  1 53  1  0
  1 54  1  0
  8  3  1  0
 18  9  1  0
 31 22  1  0
 31 26  1  0
M  END
>  <cnnaffinities>  (12) 
[5.79148, 5.91045, 5.75609, 5.73146]

>  <score>  (12) 
5.79148

>  <index>  (12) 
11

>  <Smiles>  (12) 
C(Oc1c(c(c(c(c1[C@@]1(C([C@](C([H])([H])[H])(C(C(N1C(=O)C(c1c(nc(c2c(c(c(c(c12)[H])[H])[H])[H])[H])[H])([H])[H])([H])[H])([H])[H])[H])([H])[H])[H])[H])[H])[H])[H])([H])([H])[H]

>  <h>  (12) 
<NA>

>  <Training>  (12) 
True

>  <Success>  (12) 
True

>  <enamine_searched>  (12) 
False

>  <enamine_id>  (12) 
nan

$$$$

     RDKit          3D

 47 50  0  0  0  0  0  0  0  0999 V2000
    5.9768   -0.5359   23.5567 O   0  0  0  0  0  0  0  0  0  0  0  0
    6.1325   -1.1486   22.5064 C   0  0  0  0  0  0  0  0  0  0  0  0
    6.7402   -0.4812   21.2472 C   0  0  0  0  0  0  0  0  0  0  0  0
    5.8192   -0.2568   20.0626 C   0  0  0  0  0  0  0  0  0  0  0  0
    6.1180   -0.7505   18.8177 C   0  0  0  0  0  0  0  0  0  0  0  0
    5.3767   -0.5574   17.6963 N   0  0  0  0  0  0  0  0  0  0  0  0
    4.2890    0.1663   17.8184 C   0  0  0  0  0  0  0  0  0  0  0  0
    3.8705    0.7755   19.0335 C   0  0  0  0  0  0  0  0  0  0  0  0
    2.7200    1.6085   19.1250 C   0  0  0  0  0  0  0  0  0  0  0  0
    2.3987    2.2205   20.3074 C   0  0  0  0  0  0  0  0  0  0  0  0
    3.2170    2.0521   21.4455 C   0  0  0  0  0  0  0  0  0  0  0  0
    4.3334    1.2579   21.3840 C   0  0  0  0  0  0  0  0  0  0  0  0
    4.6696    0.5783   20.1829 C   0  0  0  0  0  0  0  0  0  0  0  0
    4.9741    1.1463   22.2534 H   0  0  0  0  0  0  0  0  0  0  0  0
    2.9669    2.5582   22.3740 H   0  0  0  0  0  0  0  0  0  0  0  0
    1.5210    2.8575   20.3770 H   0  0  0  0  0  0  0  0  0  0  0  0
    2.1129    1.7721   18.2394 H   0  0  0  0  0  0  0  0  0  0  0  0
    3.6919    0.3132   16.9178 H   0  0  0  0  0  0  0  0  0  0  0  0
    7.0271   -1.3332   18.6629 H   0  0  0  0  0  0  0  0  0  0  0  0
    7.5947   -1.0742   20.8994 H   0  0  0  0  0  0  0  0  0  0  0  0
    7.1623    0.4753   21.5767 H   0  0  0  0  0  0  0  0  0  0  0  0
    5.7912   -2.4668   22.3946 N   0  0  0  0  0  0  0  0  0  0  0  0
    6.2654   -3.3019   21.3043 C   0  0  0  0  0  0  0  0  0  0  0  0
    6.0974   -4.7437   21.8023 C   0  0  2  0  0  0  0  0  0  0  0  0
    5.7823   -5.7025   20.6686 C   0  0  0  0  0  0  0  0  0  0  0  0
    4.9158   -5.1275   19.7470 F   0  0  0  0  0  0  0  0  0  0  0  0
    6.6975   -5.9330   20.1219 H   0  0  0  0  0  0  0  0  0  0  0  0
    5.3534   -6.6502   21.0028 H   0  0  0  0  0  0  0  0  0  0  0  0
    5.1889   -4.6875   23.0642 C   0  0  0  0  0  0  0  0  0  0  0  0
    3.6811   -4.9169   22.8645 C   0  0  0  0  0  0  0  0  0  0  0  0
    3.4629   -6.4382   22.8461 C   0  0  0  0  0  0  0  0  0  0  0  0
    4.6172   -7.0119   23.6975 C   0  0  0  0  0  0  0  0  0  0  0  0
    5.5204   -5.8155   24.0589 C   0  0  0  0  0  0  0  0  0  0  0  0
    6.5897   -6.0569   24.0498 H   0  0  0  0  0  0  0  0  0  0  0  0
    5.2735   -5.4561   25.0638 H   0  0  0  0  0  0  0  0  0  0  0  0
    4.2527   -7.4995   24.6046 H   0  0  0  0  0  0  0  0  0  0  0  0
    5.1505   -7.7769   23.1298 H   0  0  0  0  0  0  0  0  0  0  0  0
    3.5294   -6.7977   21.8163 H   0  0  0  0  0  0  0  0  0  0  0  0
    2.4718   -6.7301   23.2188 H   0  0  0  0  0  0  0  0  0  0  0  0
    3.1880   -4.5005   23.7528 H   0  0  0  0  0  0  0  0  0  0  0  0
    3.2811   -4.4114   21.9803 H   0  0  0  0  0  0  0  0  0  0  0  0
    5.5077   -3.2717   23.5890 C   0  0  0  0  0  0  0  0  0  0  0  0
    6.3966   -3.3019   24.2322 H   0  0  0  0  0  0  0  0  0  0  0  0
    4.7023   -2.8137   24.1707 H   0  0  0  0  0  0  0  0  0  0  0  0
    7.0736   -5.0571   22.2005 H   0  0  0  0  0  0  0  0  0  0  0  0
    5.7029   -3.1087   20.3853 H   0  0  0  0  0  0  0  0  0  0  0  0
    7.3297   -3.0953   21.1272 H   0  0  0  0  0  0  0  0  0  0  0  0
  1  2  2  0
  2  3  1  0
  3  4  1  0
  4  5  2  0
  5  6  1  0
  6  7  2  0
  7  8  1  0
  8  9  2  0
  9 10  1  0
 10 11  2  0
 11 12  1  0
 12 13  2  0
 12 14  1  0
 11 15  1  0
 10 16  1  0
  9 17  1  0
  7 18  1  0
  5 19  1  0
  3 20  1  0
  3 21  1  0
  2 22  1  0
 22 23  1  0
 23 24  1  0
 24 25  1  0
 25 26  1  0
 25 27  1  0
 25 28  1  0
 24 29  1  0
 29 30  1  0
 30 31  1  0
 31 32  1  0
 32 33  1  0
 33 34  1  0
 33 35  1  0
 32 36  1  0
 32 37  1  0
 31 38  1  0
 31 39  1  0
 30 40  1  0
 30 41  1  0
 29 42  1  0
 42 43  1  0
 42 44  1  0
 24 45  1  1
 23 46  1  0
 23 47  1  0
 13  4  1  0
 42 22  1  0
 13  8  1  0
 33 29  1  0
M  END
>  <cnnaffinities>  (13) 
[5.39305, 5.33618, 5.52685, 5.52686, 5.34807, 5.50331, 5.39468, 5.49542, 5.48937, 5.47735, 5.28456, 5.44591, 5.53239, 5.37953]

>  <score>  (13) 
5.39305

>  <index>  (13) 
12

>  <Smiles>  (13) 
O=C(C(c1c(nc(c2c(c(c(c(c12)[H])[H])[H])[H])[H])[H])([H])[H])N1C([C@](C(F)([H])[H])(C2(C(C(C(C2([H])[H])([H])[H])([H])[H])([H])[H])C1([H])[H])[H])([H])[H]

>  <h>  (13) 
<NA>

>  <Training>  (13) 
True

>  <Success>  (13) 
True

>  <enamine_searched>  (13) 
False

>  <enamine_id>  (13) 
nan

$$$$

     RDKit          3D

 67 72  0  0  0  0  0  0  0  0999 V2000
    6.8690    3.7032   28.3036 C   0  0  0  0  0  0  0  0  0  0  0  0
    6.9466    3.7922   26.8583 N   0  0  0  0  0  0  0  0  0  0  0  0
    6.4497    2.7540   26.1367 C   0  0  0  0  0  0  0  0  0  0  0  0
    5.9165    1.7834   26.6521 O   0  0  0  0  0  0  0  0  0  0  0  0
    6.5883    2.9170   24.6228 C   0  0  0  0  0  0  0  0  0  0  0  0
    7.7408    2.2141   24.0978 N   0  0  0  0  0  0  0  0  0  0  0  0
    7.7106    0.7661   23.9721 C   0  0  0  0  0  0  0  0  0  0  0  0
    8.4018    0.3042   22.6556 C   0  0  2  0  0  0  0  0  0  0  0  0
    7.5817    0.7629   21.4267 C   0  0  0  0  0  0  0  0  0  0  0  0
    7.5757    1.8498   20.8919 O   0  0  0  0  0  0  0  0  0  0  0  0
    6.8446   -0.3141   20.9846 N   0  0  0  0  0  0  0  0  0  0  0  0
    5.8849   -0.1691   19.9650 C   0  0  0  0  0  0  0  0  0  0  0  0
    6.0749   -0.7962   18.7616 C   0  0  0  0  0  0  0  0  0  0  0  0
    5.2649   -0.6533   17.6886 N   0  0  0  0  0  0  0  0  0  0  0  0
    4.2068    0.1096   17.8356 C   0  0  0  0  0  0  0  0  0  0  0  0
    3.8619    0.7677   19.0494 C   0  0  0  0  0  0  0  0  0  0  0  0
    2.6861    1.5524   19.1621 C   0  0  0  0  0  0  0  0  0  0  0  0
    2.3477    2.1345   20.3508 C   0  0  0  0  0  0  0  0  0  0  0  0
    3.1881    1.9914   21.4756 C   0  0  0  0  0  0  0  0  0  0  0  0
    4.3447    1.2618   21.3859 C   0  0  0  0  0  0  0  0  0  0  0  0
    4.7148    0.6281   20.1624 C   0  0  0  0  0  0  0  0  0  0  0  0
    4.9885    1.1758   22.2564 H   0  0  0  0  0  0  0  0  0  0  0  0
    2.9151    2.4685   22.4124 H   0  0  0  0  0  0  0  0  0  0  0  0
    1.4306    2.7086   20.4390 H   0  0  0  0  0  0  0  0  0  0  0  0
    2.0698    1.6842   18.2803 H   0  0  0  0  0  0  0  0  0  0  0  0
    3.5447    0.2150   16.9757 H   0  0  0  0  0  0  0  0  0  0  0  0
    6.9477   -1.4346   18.6259 H   0  0  0  0  0  0  0  0  0  0  0  0
    7.0549   -1.5307   21.7386 C   0  0  0  0  0  0  0  0  0  0  0  0
    8.3558   -1.2416   22.4913 C   0  0  2  0  0  0  0  0  0  0  0  0
    8.4992   -2.0872   23.7571 C   0  0  0  0  0  0  0  0  0  0  0  0
    9.6730   -1.7925   24.4820 O   0  0  0  0  0  0  0  0  0  0  0  0
   10.7990   -2.5509   24.0871 C   0  0  0  0  0  0  0  0  0  0  0  0
   12.0360   -2.0506   24.7947 C   0  0  0  0  0  0  0  0  0  0  0  0
   12.1825   -0.6084   25.1853 C   0  0  0  0  0  0  0  0  0  0  0  0
   11.9552   -1.6581   26.2370 C   0  0  0  0  0  0  0  0  0  0  0  0
   12.8013   -1.8973   26.8764 H   0  0  0  0  0  0  0  0  0  0  0  0
   10.9762   -1.6868   26.7060 H   0  0  0  0  0  0  0  0  0  0  0  0
   11.3434    0.0450   24.9504 H   0  0  0  0  0  0  0  0  0  0  0  0
   13.1830   -0.1882   25.1374 H   0  0  0  0  0  0  0  0  0  0  0  0
   12.9501   -2.5404   24.4661 H   0  0  0  0  0  0  0  0  0  0  0  0
   10.9536   -2.4827   22.9982 H   0  0  0  0  0  0  0  0  0  0  0  0
   10.6344   -3.6167   24.3287 H   0  0  0  0  0  0  0  0  0  0  0  0
    7.6526   -1.8893   24.4268 H   0  0  0  0  0  0  0  0  0  0  0  0
    8.4595   -3.1584   23.4973 H   0  0  0  0  0  0  0  0  0  0  0  0
    9.1711   -1.5033   21.8147 H   0  0  0  0  0  0  0  0  0  0  0  0
    7.1500   -2.3867   21.0664 H   0  0  0  0  0  0  0  0  0  0  0  0
    6.2202   -1.7394   22.4260 H   0  0  0  0  0  0  0  0  0  0  0  0
    9.7868    0.9203   22.6369 C   0  0  0  0  0  0  0  0  0  0  0  0
   10.8753    0.2958   22.0211 C   0  0  0  0  0  0  0  0  0  0  0  0
   12.1453    0.8357   22.1293 C   0  0  0  0  0  0  0  0  0  0  0  0
   13.4941   -0.1310   21.5895 Cl  0  0  0  0  0  0  0  0  0  0  0  0
   12.3582    2.0804   22.7233 C   0  0  0  0  0  0  0  0  0  0  0  0
   11.2726    2.7366   23.2675 C   0  0  0  0  0  0  0  0  0  0  0  0
   10.0038    2.1664   23.2413 C   0  0  0  0  0  0  0  0  0  0  0  0
    8.8707    2.9361   23.8524 C   0  0  0  0  0  0  0  0  0  0  0  0
    8.9446    4.1271   24.1263 O   0  0  0  0  0  0  0  0  0  0  0  0
   11.3833    3.6982   23.7545 H   0  0  0  0  0  0  0  0  0  0  0  0
   13.3467    2.5272   22.7483 H   0  0  0  0  0  0  0  0  0  0  0  0
   10.7501   -0.6089   21.4389 H   0  0  0  0  0  0  0  0  0  0  0  0
    8.2238    0.2875   24.8238 H   0  0  0  0  0  0  0  0  0  0  0  0
    6.6590    0.4592   23.9890 H   0  0  0  0  0  0  0  0  0  0  0  0
    5.6953    2.5135   24.1429 H   0  0  0  0  0  0  0  0  0  0  0  0
    6.6742    3.9735   24.3500 H   0  0  0  0  0  0  0  0  0  0  0  0
    7.6431    4.3802   26.4143 H   0  0  0  0  0  0  0  0  0  0  0  0
    7.3926    2.8128   28.6763 H   0  0  0  0  0  0  0  0  0  0  0  0
    5.8208    3.6366   28.6084 H   0  0  0  0  0  0  0  0  0  0  0  0
    7.3077    4.5955   28.7517 H   0  0  0  0  0  0  0  0  0  0  0  0
  1  2  1  0
  2  3  1  0
  3  4  2  0
  3  5  1  0
  5  6  1  0
  6  7  1  0
  8  7  1  1
  8  9  1  0
  9 10  2  0
  9 11  1  0
 11 12  1  0
 12 13  2  0
 13 14  1  0
 14 15  2  0
 15 16  1  0
 16 17  2  0
 17 18  1  0
 18 19  2  0
 19 20  1  0
 20 21  2  0
 20 22  1  0
 19 23  1  0
 18 24  1  0
 17 25  1  0
 15 26  1  0
 13 27  1  0
 11 28  1  0
 28 29  1  0
 29 30  1  0
 30 31  1  0
 31 32  1  0
 32 33  1  0
 33 34  1  0
 34 35  1  0
 35 36  1  0
 35 37  1  0
 34 38  1  0
 34 39  1  0
 33 40  1  0
 32 41  1  0
 32 42  1  0
 30 43  1  0
 30 44  1  0
 29 45  1  6
 28 46  1  0
 28 47  1  0
  8 48  1  0
 48 49  2  0
 49 50  1  0
 50 51  1  0
 50 52  2  0
 52 53  1  0
 53 54  2  0
 54 55  1  0
 55 56  2  0
 53 57  1  0
 52 58  1  0
 49 59  1  0
  7 60  1  0
  7 61  1  0
  5 62  1  0
  5 63  1  0
  2 64  1  0
  1 65  1  0
  1 66  1  0
  1 67  1  0
 55  6  1  0
 29  8  1  0
 35 33  1  0
 54 48  1  0
 21 12  1  0
 21 16  1  0
M  END
>  <cnnaffinities>  (14) 
[6.2466, 6.56959]

>  <score>  (14) 
6.2466

>  <index>  (14) 
13

>  <Smiles>  (14) 
C(N(C(=O)C(N1C([C@@]2(C(=O)N(c3c(nc(c4c(c(c(c(c34)[H])[H])[H])[H])[H])[H])C([C@@]2(C(OC(C2(C(C2([H])[H])([H])[H])[H])([H])[H])([H])[H])[H])([H])[H])c2c(c(Cl)c(c(c2C1=O)[H])[H])[H])([H])[H])([H])[H])[H])([H])([H])[H]

>  <h>  (14) 
<NA>

>  <Training>  (14) 
True

>  <Success>  (14) 
True

>  <enamine_searched>  (14) 
False

>  <enamine_id>  (14) 
nan

$$$$

     RDKit          3D

 67 73  0  0  0  0  0  0  0  0999 V2000
    7.7015   -1.6432   24.3683 C   0  0  0  0  0  0  0  0  0  0  0  0
    7.8875   -1.3130   22.8840 C   0  0  1  0  0  0  0  0  0  0  0  0
    6.5471   -1.2902   22.1180 C   0  0  0  0  0  0  0  0  0  0  0  0
    6.8062   -0.3912   21.0135 N   0  0  0  0  0  0  0  0  0  0  0  0
    5.8795   -0.1771   19.9628 C   0  0  0  0  0  0  0  0  0  0  0  0
    6.0631   -0.8078   18.7616 C   0  0  0  0  0  0  0  0  0  0  0  0
    5.2415   -0.6640   17.6932 N   0  0  0  0  0  0  0  0  0  0  0  0
    4.1828    0.0919   17.8421 C   0  0  0  0  0  0  0  0  0  0  0  0
    3.8304    0.7513   19.0535 C   0  0  0  0  0  0  0  0  0  0  0  0
    2.6496    1.5306   19.1790 C   0  0  0  0  0  0  0  0  0  0  0  0
    2.3470    2.1619   20.3510 C   0  0  0  0  0  0  0  0  0  0  0  0
    3.2324    2.0665   21.4473 C   0  0  0  0  0  0  0  0  0  0  0  0
    4.3878    1.3280   21.3516 C   0  0  0  0  0  0  0  0  0  0  0  0
    4.7119    0.6311   20.1538 C   0  0  0  0  0  0  0  0  0  0  0  0
    5.0682    1.2814   22.1965 H   0  0  0  0  0  0  0  0  0  0  0  0
    3.0002    2.5926   22.3680 H   0  0  0  0  0  0  0  0  0  0  0  0
    1.4359    2.7488   20.4396 H   0  0  0  0  0  0  0  0  0  0  0  0
    1.9997    1.6317   18.3182 H   0  0  0  0  0  0  0  0  0  0  0  0
    3.5229    0.1871   16.9789 H   0  0  0  0  0  0  0  0  0  0  0  0
    6.9125   -1.4721   18.6176 H   0  0  0  0  0  0  0  0  0  0  0  0
    7.9487    0.3652   21.1537 C   0  0  0  0  0  0  0  0  0  0  0  0
    8.3502    1.1637   20.3330 O   0  0  0  0  0  0  0  0  0  0  0  0
    8.5748    0.0438   22.5357 C   0  0  1  0  0  0  0  0  0  0  0  0
    8.1784    1.1497   23.5507 C   0  0  0  0  0  0  0  0  0  0  0  0
    8.7410    2.4325   23.1922 N   0  0  0  0  0  0  0  0  0  0  0  0
    7.9121    3.6261   23.2363 C   0  0  0  0  0  0  0  0  0  0  0  0
    7.3408    3.9493   21.8544 C   0  0  0  0  0  0  0  0  0  0  0  0
    6.4470    5.1466   21.7883 N   0  0  2  0  0  4  0  0  0  0  0  0
    7.1118    6.5154   21.9517 C   0  0  0  0  0  0  0  0  0  0  0  0
    6.1589    7.2172   22.9351 C   0  0  2  0  0  0  0  0  0  0  0  0
    5.8130    6.0865   23.9080 C   0  0  0  0  0  0  0  0  0  0  0  0
    5.2697    5.2173   22.7735 C   0  0  1  0  0  0  0  0  0  0  0  0
    4.2548    6.1873   22.1748 C   0  0  0  0  0  0  0  0  0  0  0  0
    4.9117    7.4648   22.2690 O   0  0  0  0  0  0  0  0  0  0  0  0
    3.3184    6.2175   22.7487 H   0  0  0  0  0  0  0  0  0  0  0  0
    4.0138    5.9767   21.1247 H   0  0  0  0  0  0  0  0  0  0  0  0
    4.8978    4.2190   22.9934 H   0  0  0  0  0  0  0  0  0  0  0  0
    5.0345    6.3746   24.6187 H   0  0  0  0  0  0  0  0  0  0  0  0
    6.6724    5.6647   24.4376 H   0  0  0  0  0  0  0  0  0  0  0  0
    6.5195    8.1672   23.3312 H   0  0  0  0  0  0  0  0  0  0  0  0
    7.1685    7.0237   20.9889 H   0  0  0  0  0  0  0  0  0  0  0  0
    8.1195    6.3869   22.3510 H   0  0  0  0  0  0  0  0  0  0  0  0
    6.0380    5.1117   20.8399 H   0  0  0  0  0  0  0  0  0  0  0  0
    8.1781    4.0901   21.1706 H   0  0  0  0  0  0  0  0  0  0  0  0
    6.7722    3.0858   21.4926 H   0  0  0  0  0  0  0  0  0  0  0  0
    7.1004    3.4351   23.9479 H   0  0  0  0  0  0  0  0  0  0  0  0
    8.5424    4.4409   23.6037 H   0  0  0  0  0  0  0  0  0  0  0  0
   10.0563    2.5557   22.8625 C   0  0  0  0  0  0  0  0  0  0  0  0
   10.6159    3.6363   22.7575 O   0  0  0  0  0  0  0  0  0  0  0  0
   10.7821    1.2646   22.6102 C   0  0  0  0  0  0  0  0  0  0  0  0
   12.1683    1.3308   22.4907 C   0  0  0  0  0  0  0  0  0  0  0  0
   12.8832    0.1949   22.1946 C   0  0  0  0  0  0  0  0  0  0  0  0
   12.2039   -1.0003   21.9902 C   0  0  0  0  0  0  0  0  0  0  0  0
   13.1963   -2.3648   21.5972 Cl  0  0  0  0  0  0  0  0  0  0  0  0
   10.8270   -1.0910   22.0925 C   0  0  0  0  0  0  0  0  0  0  0  0
   10.0913    0.0502   22.4456 C   0  0  0  0  0  0  0  0  0  0  0  0
   10.3431   -2.0388   21.8763 H   0  0  0  0  0  0  0  0  0  0  0  0
   13.9608    0.1897   22.0977 H   0  0  0  0  0  0  0  0  0  0  0  0
   12.6646    2.2863   22.6219 H   0  0  0  0  0  0  0  0  0  0  0  0
    7.0893    1.2651   23.5638 H   0  0  0  0  0  0  0  0  0  0  0  0
    8.5229    0.8445   24.5528 H   0  0  0  0  0  0  0  0  0  0  0  0
    5.7143   -0.9369   22.7492 H   0  0  0  0  0  0  0  0  0  0  0  0
    6.2574   -2.2760   21.7361 H   0  0  0  0  0  0  0  0  0  0  0  0
    8.4988   -2.0953   22.4242 H   0  0  0  0  0  0  0  0  0  0  0  0
    6.9996   -0.9426   24.8411 H   0  0  0  0  0  0  0  0  0  0  0  0
    7.2859   -2.6517   24.4973 H   0  0  0  0  0  0  0  0  0  0  0  0
    8.6475   -1.5929   24.9207 H   0  0  0  0  0  0  0  0  0  0  0  0
  1  2  1  0
  2  3  1  0
  3  4  1  0
  4  5  1  0
  5  6  2  0
  6  7  1  0
  7  8  2  0
  8  9  1  0
  9 10  2  0
 10 11  1  0
 11 12  2  0
 12 13  1  0
 13 14  2  0
 13 15  1  0
 12 16  1  0
 11 17  1  0
 10 18  1  0
  8 19  1  0
  6 20  1  0
  4 21  1  0
 21 22  2  0
 21 23  1  0
 23 24  1  1
 24 25  1  0
 25 26  1  0
 26 27  1  0
 27 28  1  0
 28 29  1  0
 29 30  1  0
 30 31  1  0
 31 32  1  0
 32 33  1  0
 33 34  1  0
 33 35  1  0
 33 36  1  0
 32 37  1  1
 31 38  1  0
 31 39  1  0
 30 40  1  1
 29 41  1  0
 29 42  1  0
 28 43  1  6
 27 44  1  0
 27 45  1  0
 26 46  1  0
 26 47  1  0
 25 48  1  0
 48 49  2  0
 48 50  1  0
 50 51  2  0
 51 52  1  0
 52 53  2  0
 53 54  1  0
 53 55  1  0
 55 56  2  0
 55 57  1  0
 52 58  1  0
 51 59  1  0
 24 60  1  0
 24 61  1  0
  3 62  1  0
  3 63  1  0
  2 64  1  6
  1 65  1  0
  1 66  1  0
  1 67  1  0
 23  2  1  0
 32 28  1  0
 56 50  1  0
 14  5  1  0
 56 23  1  0
 14  9  1  0
 34 30  1  0
M  CHG  1  28   1
M  END
>  <cnnaffinities>  (15) 
[6.43812, 6.56952, 6.24488, 6.34216]

>  <score>  (15) 
6.43812

>  <index>  (15) 
14

>  <Smiles>  (15) 
C([C@]1(C(N(c2c(nc(c3c(c(c(c(c23)[H])[H])[H])[H])[H])[H])C(=O)[C@]21C(N(C(C([N@@+]1(C([C@@]3(C([C@]1(C(O3)([H])[H])[H])([H])[H])[H])([H])[H])[H])([H])[H])([H])[H])C(=O)c1c(c(c(Cl)c(c21)[H])[H])[H])([H])[H])([H])[H])[H])([H])([H])[H]

>  <h>  (15) 
<NA>

>  <Training>  (15) 
True

>  <Success>  (15) 
True

>  <enamine_searched>  (15) 
False

>  <enamine_id>  (15) 
nan

$$$$

     RDKit          3D

 72 77  0  0  0  0  0  0  0  0999 V2000
    3.7135    6.6547   20.7260 C   0  0  0  0  0  0  0  0  0  0  0  0
    3.8684    5.9720   22.0755 C   0  0  1  0  0  0  0  0  0  0  0  0
    4.9888    4.9257   22.1049 C   0  0  0  0  0  0  0  0  0  0  0  0
    6.3552    5.5515   22.2021 N   0  0  2  0  0  4  0  0  0  0  0  0
    7.4556    4.5136   22.2014 C   0  0  0  0  0  0  0  0  0  0  0  0
    7.6609    3.7842   23.5392 C   0  0  0  0  0  0  0  0  0  0  0  0
    8.5470    2.6387   23.4019 N   0  0  0  0  0  0  0  0  0  0  0  0
    8.0610    1.2908   23.6259 C   0  0  0  0  0  0  0  0  0  0  0  0
    8.5425    0.3064   22.5317 C   0  0  2  0  0  0  0  0  0  0  0  0
    7.8316    0.6255   21.1960 C   0  0  0  0  0  0  0  0  0  0  0  0
    8.0595    1.5475   20.4426 O   0  0  0  0  0  0  0  0  0  0  0  0
    6.8550   -0.3189   20.9805 N   0  0  0  0  0  0  0  0  0  0  0  0
    5.8892   -0.1564   19.9540 C   0  0  0  0  0  0  0  0  0  0  0  0
    6.0637   -0.8023   18.7582 C   0  0  0  0  0  0  0  0  0  0  0  0
    5.2393   -0.6690   17.6927 N   0  0  0  0  0  0  0  0  0  0  0  0
    4.1829    0.0925   17.8418 C   0  0  0  0  0  0  0  0  0  0  0  0
    3.8348    0.7584   19.0535 C   0  0  0  0  0  0  0  0  0  0  0  0
    2.6473    1.5286   19.1837 C   0  0  0  0  0  0  0  0  0  0  0  0
    2.3322    2.1362   20.3652 C   0  0  0  0  0  0  0  0  0  0  0  0
    3.2067    2.0247   21.4678 C   0  0  0  0  0  0  0  0  0  0  0  0
    4.3709    1.3018   21.3670 C   0  0  0  0  0  0  0  0  0  0  0  0
    4.7158    0.6399   20.1523 C   0  0  0  0  0  0  0  0  0  0  0  0
    5.0404    1.2356   22.2182 H   0  0  0  0  0  0  0  0  0  0  0  0
    2.9741    2.5474   22.3925 H   0  0  0  0  0  0  0  0  0  0  0  0
    1.4120    2.7138   20.4526 H   0  0  0  0  0  0  0  0  0  0  0  0
    2.0055    1.6413   18.3181 H   0  0  0  0  0  0  0  0  0  0  0  0
    3.5227    0.1867   16.9808 H   0  0  0  0  0  0  0  0  0  0  0  0
    6.9142   -1.4662   18.6134 H   0  0  0  0  0  0  0  0  0  0  0  0
    6.7493   -1.3178   22.0212 C   0  0  0  0  0  0  0  0  0  0  0  0
    8.0608   -1.1560   22.8161 C   0  0  2  0  0  0  0  0  0  0  0  0
    7.9006   -1.5659   24.2835 C   0  0  0  0  0  0  0  0  0  0  0  0
    8.8184   -1.4085   24.8626 H   0  0  0  0  0  0  0  0  0  0  0  0
    7.0976   -0.9931   24.7648 H   0  0  0  0  0  0  0  0  0  0  0  0
    7.6315   -2.6256   24.3617 H   0  0  0  0  0  0  0  0  0  0  0  0
    8.8072   -1.8092   22.3567 H   0  0  0  0  0  0  0  0  0  0  0  0
    5.8696   -1.1414   22.6622 H   0  0  0  0  0  0  0  0  0  0  0  0
    6.6359   -2.3147   21.5801 H   0  0  0  0  0  0  0  0  0  0  0  0
   10.0408    0.4863   22.3696 C   0  0  0  0  0  0  0  0  0  0  0  0
   10.8035   -0.4989   21.7321 C   0  0  0  0  0  0  0  0  0  0  0  0
   12.1682   -0.3310   21.5907 C   0  0  0  0  0  0  0  0  0  0  0  0
   13.0772   -1.5708   20.7731 Cl  0  0  0  0  0  0  0  0  0  0  0  0
   12.8062    0.8378   22.0059 C   0  0  0  0  0  0  0  0  0  0  0  0
   12.0466    1.8462   22.5671 C   0  0  0  0  0  0  0  0  0  0  0  0
   10.6709    1.6883   22.7280 C   0  0  0  0  0  0  0  0  0  0  0  0
    9.8776    2.8709   23.2151 C   0  0  0  0  0  0  0  0  0  0  0  0
   10.3905    3.9700   23.3880 O   0  0  0  0  0  0  0  0  0  0  0  0
   12.4825    2.7924   22.8731 H   0  0  0  0  0  0  0  0  0  0  0  0
   13.8685    0.9671   21.8346 H   0  0  0  0  0  0  0  0  0  0  0  0
   10.3460   -1.3727   21.2792 H   0  0  0  0  0  0  0  0  0  0  0  0
    8.4082    0.9145   24.6018 H   0  0  0  0  0  0  0  0  0  0  0  0
    6.9673    1.3213   23.6185 H   0  0  0  0  0  0  0  0  0  0  0  0
    6.7028    3.4013   23.9081 H   0  0  0  0  0  0  0  0  0  0  0  0
    8.0836    4.4606   24.2882 H   0  0  0  0  0  0  0  0  0  0  0  0
    7.2117    3.7797   21.4257 H   0  0  0  0  0  0  0  0  0  0  0  0
    8.3872    5.0087   21.9086 H   0  0  0  0  0  0  0  0  0  0  0  0
    6.4145    6.5830   23.3214 C   0  0  1  0  0  0  0  0  0  0  0  0
    7.7454    7.3202   23.3221 C   0  0  0  0  0  0  0  0  0  0  0  0
    7.9273    7.7745   22.3384 H   0  0  0  0  0  0  0  0  0  0  0  0
    8.5845    6.6569   23.5517 H   0  0  0  0  0  0  0  0  0  0  0  0
    7.7315    8.1196   24.0683 H   0  0  0  0  0  0  0  0  0  0  0  0
    5.2469    7.5524   23.1545 C   0  0  0  0  0  0  0  0  0  0  0  0
    4.0032    6.8884   23.1511 O   0  0  0  0  0  0  0  0  0  0  0  0
    5.3902    8.1521   22.2394 H   0  0  0  0  0  0  0  0  0  0  0  0
    5.2025    8.2352   24.0082 H   0  0  0  0  0  0  0  0  0  0  0  0
    6.2581    6.0521   24.2664 H   0  0  0  0  0  0  0  0  0  0  0  0
    6.4966    6.0867   21.3161 H   0  0  0  0  0  0  0  0  0  0  0  0
    4.9494    4.2920   21.2088 H   0  0  0  0  0  0  0  0  0  0  0  0
    4.8372    4.2930   22.9876 H   0  0  0  0  0  0  0  0  0  0  0  0
    2.9311    5.4492   22.2913 H   0  0  0  0  0  0  0  0  0  0  0  0
    3.3867    5.8928   20.0141 H   0  0  0  0  0  0  0  0  0  0  0  0
    2.9494    7.4366   20.7719 H   0  0  0  0  0  0  0  0  0  0  0  0
    4.6461    7.1010   20.3591 H   0  0  0  0  0  0  0  0  0  0  0  0
  1  2  1  0
  2  3  1  0
  3  4  1  0
  4  5  1  0
  5  6  1  0
  6  7  1  0
  7  8  1  0
  9  8  1  1
  9 10  1  0
 10 11  2  0
 10 12  1  0
 12 13  1  0
 13 14  2  0
 14 15  1  0
 15 16  2  0
 16 17  1  0
 17 18  2  0
 18 19  1  0
 19 20  2  0
 20 21  1  0
 21 22  2  0
 21 23  1  0
 20 24  1  0
 19 25  1  0
 18 26  1  0
 16 27  1  0
 14 28  1  0
 12 29  1  0
 29 30  1  0
 30 31  1  0
 31 32  1  0
 31 33  1  0
 31 34  1  0
 30 35  1  6
 29 36  1  0
 29 37  1  0
  9 38  1  0
 38 39  2  0
 39 40  1  0
 40 41  1  0
 40 42  2  0
 42 43  1  0
 43 44  2  0
 44 45  1  0
 45 46  2  0
 43 47  1  0
 42 48  1  0
 39 49  1  0
  8 50  1  0
  8 51  1  0
  6 52  1  0
  6 53  1  0
  5 54  1  0
  5 55  1  0
  4 56  1  0
 56 57  1  0
 57 58  1  0
 57 59  1  0
 57 60  1  0
 56 61  1  0
 61 62  1  0
 61 63  1  0
 61 64  1  0
 56 65  1  1
  4 66  1  6
  3 67  1  0
  3 68  1  0
  2 69  1  1
  1 70  1  0
  1 71  1  0
  1 72  1  0
 62  2  1  0
 45  7  1  0
 30  9  1  0
 44 38  1  0
 22 13  1  0
 22 17  1  0
M  CHG  1   4   1
M  END
>  <cnnaffinities>  (16) 
[6.46639, 6.30313]

>  <score>  (16) 
6.46639

>  <index>  (16) 
15

>  <Smiles>  (16) 
C([C@]1(C([N@+](C(C(N2C([C@@]3(C(=O)N(c4c(nc(c5c(c(c(c(c45)[H])[H])[H])[H])[H])[H])C([C@@]3(C([H])([H])[H])[H])([H])[H])c3c(c(Cl)c(c(c3C2=O)[H])[H])[H])([H])[H])([H])[H])([H])[H])([C@@](C([H])([H])[H])(C(O1)([H])[H])[H])[H])([H])[H])[H])([H])([H])[H]

>  <h>  (16) 
<NA>

>  <Training>  (16) 
True

>  <Success>  (16) 
True

>  <enamine_searched>  (16) 
False

>  <enamine_id>  (16) 
nan

$$$$

     RDKit          3D

 47 50  0  0  0  0  0  0  0  0999 V2000
    6.9056    3.8971   24.5227 C   0  0  0  0  0  0  0  0  0  0  0  0
    8.1936    3.1541   24.1890 C   0  0  1  0  0  0  0  0  0  0  0  0
    8.2063    1.7608   24.8229 C   0  0  0  0  0  0  0  0  0  0  0  0
    7.7450    0.7688   23.7573 C   0  0  2  0  0  0  0  0  0  0  0  0
    8.5589   -0.5174   23.7902 C   0  0  0  0  0  0  0  0  0  0  0  0
    7.9973   -1.6812   24.3095 C   0  0  0  0  0  0  0  0  0  0  0  0
    8.7265   -2.8668   24.3539 C   0  0  0  0  0  0  0  0  0  0  0  0
   10.0359   -2.8980   23.8847 C   0  0  0  0  0  0  0  0  0  0  0  0
   10.6162   -1.7343   23.3883 C   0  0  0  0  0  0  0  0  0  0  0  0
    9.8871   -0.5507   23.3516 C   0  0  0  0  0  0  0  0  0  0  0  0
   10.3575    0.3520   22.9692 H   0  0  0  0  0  0  0  0  0  0  0  0
   11.6417   -1.7489   23.0282 H   0  0  0  0  0  0  0  0  0  0  0  0
   10.6042   -3.8232   23.9100 H   0  0  0  0  0  0  0  0  0  0  0  0
    8.2644   -3.7675   24.7469 H   0  0  0  0  0  0  0  0  0  0  0  0
    6.9747   -1.6617   24.6845 H   0  0  0  0  0  0  0  0  0  0  0  0
    7.8832    1.5040   22.5155 N   0  0  0  0  0  0  0  0  0  0  0  0
    7.6809    0.9911   21.2631 C   0  0  0  0  0  0  0  0  0  0  0  0
    8.1083    1.5610   20.2799 O   0  0  0  0  0  0  0  0  0  0  0  0
    6.8795   -0.3107   21.0799 C   0  0  0  0  0  0  0  0  0  0  0  0
    5.8606   -0.1802   19.9726 C   0  0  0  0  0  0  0  0  0  0  0  0
    6.0373   -0.8014   18.7656 C   0  0  0  0  0  0  0  0  0  0  0  0
    5.2204   -0.6736   17.6842 N   0  0  0  0  0  0  0  0  0  0  0  0
    4.1615    0.0827   17.8289 C   0  0  0  0  0  0  0  0  0  0  0  0
    3.8192    0.7449   19.0390 C   0  0  0  0  0  0  0  0  0  0  0  0
    2.6379    1.5139   19.1708 C   0  0  0  0  0  0  0  0  0  0  0  0
    2.3339    2.1491   20.3418 C   0  0  0  0  0  0  0  0  0  0  0  0
    3.2176    2.0523   21.4390 C   0  0  0  0  0  0  0  0  0  0  0  0
    4.3690    1.3116   21.3413 C   0  0  0  0  0  0  0  0  0  0  0  0
    4.6984    0.6253   20.1434 C   0  0  0  0  0  0  0  0  0  0  0  0
    5.0387    1.2583   22.1960 H   0  0  0  0  0  0  0  0  0  0  0  0
    2.9772    2.5759   22.3593 H   0  0  0  0  0  0  0  0  0  0  0  0
    1.4248    2.7426   20.4284 H   0  0  0  0  0  0  0  0  0  0  0  0
    1.9810    1.6098   18.3128 H   0  0  0  0  0  0  0  0  0  0  0  0
    3.5049    0.1997   16.9606 H   0  0  0  0  0  0  0  0  0  0  0  0
    6.8811   -1.4750   18.6134 H   0  0  0  0  0  0  0  0  0  0  0  0
    7.6000   -1.0875   20.7937 H   0  0  0  0  0  0  0  0  0  0  0  0
    6.3983   -0.6283   22.0088 H   0  0  0  0  0  0  0  0  0  0  0  0
    8.3566    2.8760   22.6910 C   0  0  0  0  0  0  0  0  0  0  0  0
    9.3967    2.9976   22.3553 H   0  0  0  0  0  0  0  0  0  0  0  0
    7.7526    3.5552   22.0838 H   0  0  0  0  0  0  0  0  0  0  0  0
    6.6888    0.5297   23.9181 H   0  0  0  0  0  0  0  0  0  0  0  0
    7.6180    1.7054   25.7412 H   0  0  0  0  0  0  0  0  0  0  0  0
    9.2082    1.4639   25.0879 H   0  0  0  0  0  0  0  0  0  0  0  0
    9.0314    3.7586   24.5428 H   0  0  0  0  0  0  0  0  0  0  0  0
    6.8044    4.0440   25.6045 H   0  0  0  0  0  0  0  0  0  0  0  0
    6.8765    4.8794   24.0421 H   0  0  0  0  0  0  0  0  0  0  0  0
    6.0352    3.3243   24.1873 H   0  0  0  0  0  0  0  0  0  0  0  0
  1  2  1  0
  2  3  1  0
  3  4  1  0
  4  5  1  0
  5  6  2  0
  6  7  1  0
  7  8  2  0
  8  9  1  0
  9 10  2  0
 10 11  1  0
  9 12  1  0
  8 13  1  0
  7 14  1  0
  6 15  1  0
  4 16  1  0
 16 17  1  0
 17 18  2  0
 17 19  1  0
 19 20  1  0
 20 21  2  0
 21 22  1  0
 22 23  2  0
 23 24  1  0
 24 25  2  0
 25 26  1  0
 26 27  2  0
 27 28  1  0
 28 29  2  0
 28 30  1  0
 27 31  1  0
 26 32  1  0
 25 33  1  0
 23 34  1  0
 21 35  1  0
 19 36  1  0
 19 37  1  0
 16 38  1  0
 38 39  1  0
 38 40  1  0
  4 41  1  1
  3 42  1  0
  3 43  1  0
  2 44  1  1
  1 45  1  0
  1 46  1  0
  1 47  1  0
 38  2  1  0
 10  5  1  0
 29 20  1  0
 29 24  1  0
M  END
>  <cnnaffinities>  (17) 
[5.55057, 5.55055, 5.49377, 5.4936, 5.59562, 5.59591]

>  <score>  (17) 
5.55057

>  <index>  (17) 
16

>  <Smiles>  (17) 
C([C@]1(C([C@](c2c(c(c(c(c2[H])[H])[H])[H])[H])(N(C(=O)C(c2c(nc(c3c(c(c(c(c23)[H])[H])[H])[H])[H])[H])([H])[H])C1([H])[H])[H])([H])[H])[H])([H])([H])[H]

>  <h>  (17) 
<NA>

>  <Training>  (17) 
True

>  <Success>  (17) 
True

>  <enamine_searched>  (17) 
False

>  <enamine_id>  (17) 
nan

$$$$

     RDKit          3D

 58 63  0  0  0  0  0  0  0  0999 V2000
    8.2112   -1.9236   23.9687 C   0  0  0  0  0  0  0  0  0  0  0  0
    8.2494   -1.2187   22.6183 C   0  0  1  0  0  0  0  0  0  0  0  0
    6.9944   -1.4922   21.7818 C   0  0  0  0  0  0  0  0  0  0  0  0
    6.8661   -0.3018   20.9726 N   0  0  0  0  0  0  0  0  0  0  0  0
    5.9007   -0.1501   19.9610 C   0  0  0  0  0  0  0  0  0  0  0  0
    6.0863   -0.7827   18.7607 C   0  0  0  0  0  0  0  0  0  0  0  0
    5.2734   -0.6406   17.6896 N   0  0  0  0  0  0  0  0  0  0  0  0
    4.2206    0.1267   17.8506 C   0  0  0  0  0  0  0  0  0  0  0  0
    3.8828    0.7887   19.0643 C   0  0  0  0  0  0  0  0  0  0  0  0
    2.7121    1.5800   19.1815 C   0  0  0  0  0  0  0  0  0  0  0  0
    2.3745    2.1536   20.3727 C   0  0  0  0  0  0  0  0  0  0  0  0
    3.2105    1.9974   21.5023 C   0  0  0  0  0  0  0  0  0  0  0  0
    4.3687    1.2673   21.4077 C   0  0  0  0  0  0  0  0  0  0  0  0
    4.7356    0.6452   20.1774 C   0  0  0  0  0  0  0  0  0  0  0  0
    4.9989    1.1667   22.2874 H   0  0  0  0  0  0  0  0  0  0  0  0
    2.9432    2.4602   22.4461 H   0  0  0  0  0  0  0  0  0  0  0  0
    1.4526    2.7202   20.4613 H   0  0  0  0  0  0  0  0  0  0  0  0
    2.1004    1.7155   18.2961 H   0  0  0  0  0  0  0  0  0  0  0  0
    3.5517    0.2284   16.9981 H   0  0  0  0  0  0  0  0  0  0  0  0
    6.9657   -1.4114   18.6299 H   0  0  0  0  0  0  0  0  0  0  0  0
    7.6167    0.7681   21.3964 C   0  0  0  0  0  0  0  0  0  0  0  0
    7.6174    1.8517   20.8481 O   0  0  0  0  0  0  0  0  0  0  0  0
    8.3920    0.3318   22.6589 C   0  0  1  0  0  0  0  0  0  0  0  0
    7.7203    0.9270   23.9284 C   0  0  0  0  0  0  0  0  0  0  0  0
    7.8556    2.3778   24.0061 N   0  0  0  0  0  0  0  0  0  0  0  0
    6.6401    3.1892   23.9960 C   0  0  0  0  0  0  0  0  0  0  0  0
    5.7068    2.8351   25.0997 C   0  0  0  0  0  0  0  0  0  0  0  0
    4.4986    2.3359   24.9839 N   0  0  0  0  0  0  0  0  0  0  0  0
    3.9972    2.1670   26.2491 N   0  0  0  0  0  0  0  0  0  0  0  0
    4.9160    2.5716   27.0781 C   0  0  0  0  0  0  0  0  0  0  0  0
    6.0221    3.0138   26.4149 N   0  0  0  0  0  0  0  0  0  0  0  0
    7.2878    3.4727   26.9584 C   0  0  0  0  0  0  0  0  0  0  0  0
    7.1361    3.7326   28.0127 H   0  0  0  0  0  0  0  0  0  0  0  0
    7.6389    4.3710   26.4292 H   0  0  0  0  0  0  0  0  0  0  0  0
    8.0355    2.6732   26.8755 H   0  0  0  0  0  0  0  0  0  0  0  0
    4.8305    2.5857   28.1555 H   0  0  0  0  0  0  0  0  0  0  0  0
    6.1617    3.0730   23.0171 H   0  0  0  0  0  0  0  0  0  0  0  0
    6.9367    4.2406   24.0797 H   0  0  0  0  0  0  0  0  0  0  0  0
    9.0211    3.0046   23.6481 C   0  0  0  0  0  0  0  0  0  0  0  0
    9.1547    4.2210   23.7241 O   0  0  0  0  0  0  0  0  0  0  0  0
   10.1165    2.1131   23.1383 C   0  0  0  0  0  0  0  0  0  0  0  0
   11.4271    2.5875   23.1312 C   0  0  0  0  0  0  0  0  0  0  0  0
   12.4572    1.8317   22.6004 C   0  0  0  0  0  0  0  0  0  0  0  0
   12.1264    0.6098   22.0251 C   0  0  0  0  0  0  0  0  0  0  0  0
   13.0869   -0.1444   21.4623 F   0  0  0  0  0  0  0  0  0  0  0  0
   10.8373    0.1258   21.9965 C   0  0  0  0  0  0  0  0  0  0  0  0
    9.8127    0.8483   22.6135 C   0  0  0  0  0  0  0  0  0  0  0  0
   10.6769   -0.8101   21.4737 H   0  0  0  0  0  0  0  0  0  0  0  0
   13.4832    2.1836   22.6016 H   0  0  0  0  0  0  0  0  0  0  0  0
   11.6069    3.5742   23.5388 H   0  0  0  0  0  0  0  0  0  0  0  0
    6.6546    0.6766   23.9438 H   0  0  0  0  0  0  0  0  0  0  0  0
    8.1912    0.4670   24.8082 H   0  0  0  0  0  0  0  0  0  0  0  0
    6.1147   -1.6460   22.4258 H   0  0  0  0  0  0  0  0  0  0  0  0
    7.1073   -2.3821   21.1544 H   0  0  0  0  0  0  0  0  0  0  0  0
    9.0975   -1.6061   22.0491 H   0  0  0  0  0  0  0  0  0  0  0  0
    9.0960   -1.6887   24.5719 H   0  0  0  0  0  0  0  0  0  0  0  0
    7.3191   -1.6161   24.5299 H   0  0  0  0  0  0  0  0  0  0  0  0
    8.1623   -3.0069   23.8238 H   0  0  0  0  0  0  0  0  0  0  0  0
  1  2  1  0
  2  3  1  0
  3  4  1  0
  4  5  1  0
  5  6  2  0
  6  7  1  0
  7  8  2  0
  8  9  1  0
  9 10  2  0
 10 11  1  0
 11 12  2  0
 12 13  1  0
 13 14  2  0
 13 15  1  0
 12 16  1  0
 11 17  1  0
 10 18  1  0
  8 19  1  0
  6 20  1  0
  4 21  1  0
 21 22  2  0
 21 23  1  0
 23 24  1  1
 24 25  1  0
 25 26  1  0
 26 27  1  0
 27 28  2  0
 28 29  1  0
 29 30  2  0
 30 31  1  0
 31 32  1  0
 32 33  1  0
 32 34  1  0
 32 35  1  0
 30 36  1  0
 26 37  1  0
 26 38  1  0
 25 39  1  0
 39 40  2  0
 39 41  1  0
 41 42  2  0
 42 43  1  0
 43 44  2  0
 44 45  1  0
 44 46  1  0
 46 47  2  0
 46 48  1  0
 43 49  1  0
 42 50  1  0
 24 51  1  0
 24 52  1  0
  3 53  1  0
  3 54  1  0
  2 55  1  6
  1 56  1  0
  1 57  1  0
  1 58  1  0
 23  2  1  0
 31 27  1  0
 47 41  1  0
 14  5  1  0
 47 23  1  0
 14  9  1  0
M  END
>  <cnnaffinities>  (18) 
[6.0697, 6.11515, 6.14091, 6.15629]

>  <score>  (18) 
6.0697

>  <index>  (18) 
17

>  <Smiles>  (18) 
C([C@]1(C(N(c2c(nc(c3c(c(c(c(c23)[H])[H])[H])[H])[H])[H])C(=O)[C@]21C(N(C(c1nnc(n1C([H])([H])[H])[H])([H])[H])C(=O)c1c(c(c(F)c(c21)[H])[H])[H])([H])[H])([H])[H])[H])([H])([H])[H]

>  <h>  (18) 
<NA>

>  <Training>  (18) 
True

>  <Success>  (18) 
True

>  <enamine_searched>  (18) 
False

>  <enamine_id>  (18) 
nan

$$$$

     RDKit          3D

 50 53  0  0  0  0  0  0  0  0999 V2000
    5.2595    0.2940   29.9963 C   0  0  0  0  0  0  0  0  0  0  0  0
    5.1550   -0.4084   28.6498 C   0  0  1  0  0  0  0  0  0  0  0  0
    4.9240    0.5854   27.5116 C   0  0  0  0  0  0  0  0  0  0  0  0
    4.8654   -0.0962   26.1422 C   0  0  0  0  0  0  0  0  0  0  0  0
    6.0782   -1.0078   25.8329 C   0  0  2  0  0  0  0  0  0  0  0  0
    7.3405   -0.1714   25.5250 C   0  0  0  0  0  0  0  0  0  0  0  0
    7.3353    0.0805   24.0129 C   0  0  0  0  0  0  0  0  0  0  0  0
    6.4978   -0.9779   23.4638 N   0  0  0  0  0  0  0  0  0  0  0  0
    6.3595   -1.3172   22.1497 C   0  0  0  0  0  0  0  0  0  0  0  0
    5.8220   -2.3578   21.8077 O   0  0  0  0  0  0  0  0  0  0  0  0
    6.8713   -0.3348   21.0784 C   0  0  0  0  0  0  0  0  0  0  0  0
    5.8651   -0.1732   19.9659 C   0  0  0  0  0  0  0  0  0  0  0  0
    6.0294   -0.8114   18.7630 C   0  0  0  0  0  0  0  0  0  0  0  0
    5.2141   -0.6829   17.6827 N   0  0  0  0  0  0  0  0  0  0  0  0
    4.1574    0.0816   17.8263 C   0  0  0  0  0  0  0  0  0  0  0  0
    3.8171    0.7442   19.0401 C   0  0  0  0  0  0  0  0  0  0  0  0
    2.6273    1.5029   19.1725 C   0  0  0  0  0  0  0  0  0  0  0  0
    2.3190    2.1273   20.3517 C   0  0  0  0  0  0  0  0  0  0  0  0
    3.1974    2.0235   21.4501 C   0  0  0  0  0  0  0  0  0  0  0  0
    4.3579    1.2915   21.3500 C   0  0  0  0  0  0  0  0  0  0  0  0
    4.6943    0.6237   20.1402 C   0  0  0  0  0  0  0  0  0  0  0  0
    5.0183    1.2287   22.2098 H   0  0  0  0  0  0  0  0  0  0  0  0
    2.9508    2.5338   22.3754 H   0  0  0  0  0  0  0  0  0  0  0  0
    1.4077    2.7124   20.4400 H   0  0  0  0  0  0  0  0  0  0  0  0
    1.9730    1.5991   18.3173 H   0  0  0  0  0  0  0  0  0  0  0  0
    3.5044    0.2022   16.9603 H   0  0  0  0  0  0  0  0  0  0  0  0
    6.8713   -1.4871   18.6204 H   0  0  0  0  0  0  0  0  0  0  0  0
    7.7860   -0.7621   20.6478 H   0  0  0  0  0  0  0  0  0  0  0  0
    7.1429    0.6475   21.4857 H   0  0  0  0  0  0  0  0  0  0  0  0
    5.8644   -1.7767   24.5086 C   0  0  0  0  0  0  0  0  0  0  0  0
    4.8025   -1.9187   24.2924 H   0  0  0  0  0  0  0  0  0  0  0  0
    6.3082   -2.7783   24.5548 H   0  0  0  0  0  0  0  0  0  0  0  0
    6.9243    1.0698   23.7807 H   0  0  0  0  0  0  0  0  0  0  0  0
    8.3484    0.0292   23.6065 H   0  0  0  0  0  0  0  0  0  0  0  0
    7.3706    0.7698   26.0796 H   0  0  0  0  0  0  0  0  0  0  0  0
    8.2381   -0.7261   25.8177 H   0  0  0  0  0  0  0  0  0  0  0  0
    6.2926   -1.9747   27.0147 C   0  0  0  0  0  0  0  0  0  0  0  0
    6.3805   -1.2655   28.3599 C   0  0  0  0  0  0  0  0  0  0  0  0
    7.2439   -0.6053   28.3195 H   0  0  0  0  0  0  0  0  0  0  0  0
    6.5477   -1.9869   29.1722 H   0  0  0  0  0  0  0  0  0  0  0  0
    7.2018   -2.5672   26.8471 H   0  0  0  0  0  0  0  0  0  0  0  0
    5.4643   -2.6902   27.0558 H   0  0  0  0  0  0  0  0  0  0  0  0
    4.7566    0.6549   25.3502 H   0  0  0  0  0  0  0  0  0  0  0  0
    3.9534   -0.7062   26.1116 H   0  0  0  0  0  0  0  0  0  0  0  0
    3.9911    1.1360   27.6901 H   0  0  0  0  0  0  0  0  0  0  0  0
    5.7176    1.3435   27.5206 H   0  0  0  0  0  0  0  0  0  0  0  0
    4.2945   -1.0845   28.6802 H   0  0  0  0  0  0  0  0  0  0  0  0
    5.3970   -0.4235   30.8108 H   0  0  0  0  0  0  0  0  0  0  0  0
    6.1138    0.9785   30.0111 H   0  0  0  0  0  0  0  0  0  0  0  0
    4.3605    0.8810   30.2070 H   0  0  0  0  0  0  0  0  0  0  0  0
  1  2  1  0
  2  3  1  0
  3  4  1  0
  5  4  1  1
  5  6  1  0
  6  7  1  0
  7  8  1  0
  8  9  1  0
  9 10  2  0
  9 11  1  0
 11 12  1  0
 12 13  2  0
 13 14  1  0
 14 15  2  0
 15 16  1  0
 16 17  2  0
 17 18  1  0
 18 19  2  0
 19 20  1  0
 20 21  2  0
 20 22  1  0
 19 23  1  0
 18 24  1  0
 17 25  1  0
 15 26  1  0
 13 27  1  0
 11 28  1  0
 11 29  1  0
  8 30  1  0
 30 31  1  0
 30 32  1  0
  7 33  1  0
  7 34  1  0
  6 35  1  0
  6 36  1  0
  5 37  1  0
 37 38  1  0
 38 39  1  0
 38 40  1  0
 37 41  1  0
 37 42  1  0
  4 43  1  0
  4 44  1  0
  3 45  1  0
  3 46  1  0
  2 47  1  1
  1 48  1  0
  1 49  1  0
  1 50  1  0
 38  2  1  0
 30  5  1  0
 21 12  1  0
 21 16  1  0
M  END
>  <cnnaffinities>  (19) 
[5.41118, 5.56973]

>  <score>  (19) 
5.41118

>  <index>  (19) 
18

>  <Smiles>  (19) 
C([C@]1(C(C([C@@]2(C(C(N(C(=O)C(c3c(nc(c4c(c(c(c(c34)[H])[H])[H])[H])[H])[H])([H])[H])C2([H])[H])([H])[H])([H])[H])C(C1([H])[H])([H])[H])([H])[H])([H])[H])[H])([H])([H])[H]

>  <h>  (19) 
<NA>

>  <Training>  (19) 
True

>  <Success>  (19) 
True

>  <enamine_searched>  (19) 
False

>  <enamine_id>  (19) 
nan

$$$$

     RDKit          3D

 67 71  0  0  0  0  0  0  0  0999 V2000
   12.4391    0.3459   21.9871 O   0  0  0  0  0  0  0  0  0  0  0  0
   11.9468    0.4378   23.1045 C   0  0  0  0  0  0  0  0  0  0  0  0
   11.2780   -0.7994   23.7070 C   0  0  0  0  0  0  0  0  0  0  0  0
   10.9698   -1.6867   22.5387 N   0  0  1  0  0  4  0  0  0  0  0  0
   10.7904   -3.1063   22.9082 C   0  0  0  0  0  0  0  0  0  0  0  0
    9.5378   -3.3094   23.7324 C   0  0  0  0  0  0  0  0  0  0  0  0
    9.4525   -4.3447   24.6530 C   0  0  0  0  0  0  0  0  0  0  0  0
    8.2655   -4.6013   25.3212 C   0  0  0  0  0  0  0  0  0  0  0  0
    7.1617   -3.7886   25.0943 C   0  0  0  0  0  0  0  0  0  0  0  0
    5.6748   -4.1083   25.9350 Cl  0  0  0  0  0  0  0  0  0  0  0  0
    7.2445   -2.7144   24.2279 C   0  0  0  0  0  0  0  0  0  0  0  0
    8.4342   -2.4733   23.5417 C   0  0  0  0  0  0  0  0  0  0  0  0
    8.4674   -1.3300   22.5575 C   0  0  2  0  0  0  0  0  0  0  0  0
    7.3201   -1.4416   21.5592 C   0  0  0  0  0  0  0  0  0  0  0  0
    6.8894   -2.5036   21.1541 O   0  0  0  0  0  0  0  0  0  0  0  0
    6.8455   -0.2378   21.0957 N   0  0  0  0  0  0  0  0  0  0  0  0
    5.9244   -0.1349   20.0349 C   0  0  0  0  0  0  0  0  0  0  0  0
    6.1542   -0.7551   18.8333 C   0  0  0  0  0  0  0  0  0  0  0  0
    5.3643   -0.6114   17.7429 N   0  0  0  0  0  0  0  0  0  0  0  0
    4.3018    0.1487   17.8642 C   0  0  0  0  0  0  0  0  0  0  0  0
    3.9289    0.8174   19.0645 C   0  0  0  0  0  0  0  0  0  0  0  0
    2.7549    1.6068   19.1682 C   0  0  0  0  0  0  0  0  0  0  0  0
    2.4112    2.1870   20.3596 C   0  0  0  0  0  0  0  0  0  0  0  0
    3.2314    2.0233   21.5009 C   0  0  0  0  0  0  0  0  0  0  0  0
    4.3848    1.2842   21.4202 C   0  0  0  0  0  0  0  0  0  0  0  0
    4.7584    0.6693   20.1963 C   0  0  0  0  0  0  0  0  0  0  0  0
    5.0129    1.1535   22.2995 H   0  0  0  0  0  0  0  0  0  0  0  0
    2.9431    2.4818   22.4439 H   0  0  0  0  0  0  0  0  0  0  0  0
    1.4979    2.7706   20.4444 H   0  0  0  0  0  0  0  0  0  0  0  0
    2.1423    1.7442   18.2821 H   0  0  0  0  0  0  0  0  0  0  0  0
    3.6632    0.2570   16.9872 H   0  0  0  0  0  0  0  0  0  0  0  0
    7.0367   -1.3790   18.7144 H   0  0  0  0  0  0  0  0  0  0  0  0
    7.2657    0.6216   21.4234 H   0  0  0  0  0  0  0  0  0  0  0  0
    9.7435   -1.3298   21.7203 C   0  0  0  0  0  0  0  0  0  0  0  0
    9.9244   -0.3758   21.2233 H   0  0  0  0  0  0  0  0  0  0  0  0
    9.6248   -2.1038   20.9538 H   0  0  0  0  0  0  0  0  0  0  0  0
    8.3625   -0.3843   23.1053 H   0  0  0  0  0  0  0  0  0  0  0  0
    6.3641   -2.1106   24.0326 H   0  0  0  0  0  0  0  0  0  0  0  0
    8.1886   -5.4438   25.9931 H   0  0  0  0  0  0  0  0  0  0  0  0
   10.3339   -4.9562   24.8373 H   0  0  0  0  0  0  0  0  0  0  0  0
   10.6958   -3.6260   21.9627 H   0  0  0  0  0  0  0  0  0  0  0  0
   11.6749   -3.4957   23.4172 H   0  0  0  0  0  0  0  0  0  0  0  0
   11.7662   -1.5068   21.9024 H   0  0  0  0  0  0  0  0  0  0  0  0
   11.9715   -1.3253   24.3746 H   0  0  0  0  0  0  0  0  0  0  0  0
   10.3830   -0.5891   24.2884 H   0  0  0  0  0  0  0  0  0  0  0  0
   11.9682    1.5676   23.8617 N   0  0  0  0  0  0  0  0  0  0  0  0
   12.2998    2.8701   23.2962 C   0  0  0  0  0  0  0  0  0  0  0  0
   11.1952    3.4267   22.3722 C   0  0  0  0  0  0  0  0  0  0  0  0
    9.8327    3.5350   23.0167 C   0  0  0  0  0  0  0  0  0  0  0  0
    8.8710    2.5220   22.9327 C   0  0  0  0  0  0  0  0  0  0  0  0
    7.6502    2.6383   23.5877 C   0  0  0  0  0  0  0  0  0  0  0  0
    7.3488    3.7837   24.3240 C   0  0  0  0  0  0  0  0  0  0  0  0
    6.0470    3.9129   25.0574 C   0  0  0  0  0  0  0  0  0  0  0  0
    6.2521    3.8786   26.4076 F   0  0  0  0  0  0  0  0  0  0  0  0
    5.4517    5.1147   24.7933 F   0  0  0  0  0  0  0  0  0  0  0  0
    5.3287    3.1228   24.8050 H   0  0  0  0  0  0  0  0  0  0  0  0
    8.2878    4.8101   24.3889 C   0  0  0  0  0  0  0  0  0  0  0  0
    9.5033    4.6814   23.7350 C   0  0  0  0  0  0  0  0  0  0  0  0
   10.2230    5.4917   23.7935 H   0  0  0  0  0  0  0  0  0  0  0  0
    8.0695    5.7057   24.9652 H   0  0  0  0  0  0  0  0  0  0  0  0
    6.9152    1.8351   23.5230 H   0  0  0  0  0  0  0  0  0  0  0  0
    9.0789    1.6369   22.3386 H   0  0  0  0  0  0  0  0  0  0  0  0
   11.4993    4.4187   22.0101 H   0  0  0  0  0  0  0  0  0  0  0  0
   11.1420    2.7590   21.5094 H   0  0  0  0  0  0  0  0  0  0  0  0
   12.4825    3.5434   24.1415 H   0  0  0  0  0  0  0  0  0  0  0  0
   13.2370    2.7766   22.7364 H   0  0  0  0  0  0  0  0  0  0  0  0
   11.3647    1.5798   24.6683 H   0  0  0  0  0  0  0  0  0  0  0  0
  1  2  2  0
  2  3  1  0
  3  4  1  0
  4  5  1  0
  5  6  1  0
  6  7  2  0
  7  8  1  0
  8  9  2  0
  9 10  1  0
  9 11  1  0
 11 12  2  0
 12 13  1  0
 13 14  1  0
 14 15  2  0
 14 16  1  0
 16 17  1  0
 17 18  2  0
 18 19  1  0
 19 20  2  0
 20 21  1  0
 21 22  2  0
 22 23  1  0
 23 24  2  0
 24 25  1  0
 25 26  2  0
 25 27  1  0
 24 28  1  0
 23 29  1  0
 22 30  1  0
 20 31  1  0
 18 32  1  0
 16 33  1  0
 13 34  1  0
 34 35  1  0
 34 36  1  0
 13 37  1  1
 11 38  1  0
  8 39  1  0
  7 40  1  0
  5 41  1  0
  5 42  1  0
  4 43  1  6
  3 44  1  0
  3 45  1  0
  2 46  1  0
 46 47  1  0
 47 48  1  0
 48 49  1  0
 49 50  2  0
 50 51  1  0
 51 52  2  0
 52 53  1  0
 53 54  1  0
 53 55  1  0
 53 56  1  0
 52 57  1  0
 57 58  2  0
 58 59  1  0
 57 60  1  0
 51 61  1  0
 50 62  1  0
 48 63  1  0
 48 64  1  0
 47 65  1  0
 47 66  1  0
 46 67  1  0
 34  4  1  0
 58 49  1  0
 12  6  1  0
 26 17  1  0
 26 21  1  0
M  CHG  1   4   1
M  END
>  <cnnaffinities>  (20) 
[6.5702, 6.00054]

>  <score>  (20) 
6.5702

>  <index>  (20) 
19

>  <Smiles>  (20) 
O=C(C([N@+]1(C(c2c(c(c(Cl)c(c2[C@](C(=O)N(c2c(nc(c3c(c(c(c(c23)[H])[H])[H])[H])[H])[H])[H])(C1([H])[H])[H])[H])[H])[H])([H])[H])[H])([H])[H])N(C(C(c1c(c(c(C(F)(F)[H])c(c1[H])[H])[H])[H])([H])[H])([H])[H])[H]

>  <h>  (20) 
<NA>

>  <Training>  (20) 
True

>  <Success>  (20) 
True

>  <enamine_searched>  (20) 
False

>  <enamine_id>  (20) 
nan

$$$$

     RDKit          3D

 66 70  0  0  0  0  0  0  0  0999 V2000
    7.2971    6.3224   27.6148 C   0  0  0  0  0  0  0  0  0  0  0  0
    6.8967    5.1357   26.7385 C   0  0  0  0  0  0  0  0  0  0  0  0
    7.3643    5.3062   25.3061 C   0  0  0  0  0  0  0  0  0  0  0  0
    8.5320    5.4787   25.0311 O   0  0  0  0  0  0  0  0  0  0  0  0
    6.3789    5.2123   24.3080 N   0  0  0  0  0  0  0  0  0  0  0  0
    5.0660    5.8860   24.3555 C   0  0  0  0  0  0  0  0  0  0  0  0
    4.0617    5.1079   23.5024 C   0  0  0  0  0  0  0  0  0  0  0  0
    4.2988    5.0935   21.9816 C   0  0  0  0  0  0  0  0  0  0  0  0
    5.7533    5.3897   21.6541 C   0  0  0  0  0  0  0  0  0  0  0  0
    5.8397    5.2715   21.3438 C   0  0  0  0  0  0  0  0  0  0  0  0
    6.6120    2.8489   20.8605 C   0  0  0  0  0  0  0  0  0  0  0  0
    7.5176    2.6687   21.8302 C   0  0  0  0  0  0  0  0  0  0  0  0
    8.4223    1.5356   21.8143 N   0  0  0  0  0  0  0  0  0  0  0  0
    8.1067    0.2812   21.2345 C   0  0  0  0  0  0  0  0  0  0  0  0
    8.9639   -0.4030   20.7207 O   0  0  0  0  0  0  0  0  0  0  0  0
    6.6633   -0.2141   21.4060 C   0  0  0  0  0  0  0  0  0  0  0  0
    5.8149   -0.1758   20.1377 C   0  0  0  0  0  0  0  0  0  0  0  0
    6.2943   -0.6605   18.9461 C   0  0  0  0  0  0  0  0  0  0  0  0
    5.6823   -0.5141   17.7450 N   0  0  0  0  0  0  0  0  0  0  0  0
    4.5459    0.1504   17.7277 C   0  0  0  0  0  0  0  0  0  0  0  0
    3.9118    0.6823   18.8826 C   0  0  0  0  0  0  0  0  0  0  0  0
    2.7197    1.4501   18.8230 C   0  0  0  0  0  0  0  0  0  0  0  0
    2.1021    1.8709   19.9747 C   0  0  0  0  0  0  0  0  0  0  0  0
    2.6507    1.5380   21.2263 C   0  0  0  0  0  0  0  0  0  0  0  0
    3.8187    0.8161   21.3079 C   0  0  0  0  0  0  0  0  0  0  0  0
    4.5173    0.4244   20.1393 C   0  0  0  0  0  0  0  0  0  0  0  0
    4.2026    0.5302   22.2799 H   0  0  0  0  0  0  0  0  0  0  0  0
    2.1810    1.9012   22.1376 H   0  0  0  0  0  0  0  0  0  0  0  0
    1.1768    2.4395   19.9280 H   0  0  0  0  0  0  0  0  0  0  0  0
    2.3131    1.7168   17.8522 H   0  0  0  0  0  0  0  0  0  0  0  0
    4.0640    0.2824   16.7581 H   0  0  0  0  0  0  0  0  0  0  0  0
    7.2481   -1.1837   18.9349 H   0  0  0  0  0  0  0  0  0  0  0  0
    6.1916    0.3642   22.2008 H   0  0  0  0  0  0  0  0  0  0  0  0
    6.7529   -1.2526   21.7531 H   0  0  0  0  0  0  0  0  0  0  0  0
    9.7395    1.7226   22.2115 N   0  0  0  0  0  0  0  0  0  0  0  0
   10.4369    2.9130   21.7609 C   0  0  0  0  0  0  0  0  0  0  0  0
   10.3074    3.7626   22.4444 H   0  0  0  0  0  0  0  0  0  0  0  0
   10.0852    3.1857   20.7629 H   0  0  0  0  0  0  0  0  0  0  0  0
   11.5104    2.7282   21.7052 H   0  0  0  0  0  0  0  0  0  0  0  0
   10.4217    0.6681   22.8414 C   0  0  0  0  0  0  0  0  0  0  0  0
    9.8383   -0.0430   23.8988 C   0  0  0  0  0  0  0  0  0  0  0  0
   10.5340   -1.0808   24.5077 C   0  0  0  0  0  0  0  0  0  0  0  0
   11.8027   -1.4442   24.0648 C   0  0  0  0  0  0  0  0  0  0  0  0
   12.3552   -0.7535   22.9961 C   0  0  0  0  0  0  0  0  0  0  0  0
   13.9070   -1.2260   22.3748 Cl  0  0  0  0  0  0  0  0  0  0  0  0
   11.6944    0.3060   22.3917 C   0  0  0  0  0  0  0  0  0  0  0  0
   12.1491    0.7990   21.5382 H   0  0  0  0  0  0  0  0  0  0  0  0
   12.3496   -2.2610   24.5274 H   0  0  0  0  0  0  0  0  0  0  0  0
   10.0733   -1.6306   25.3251 H   0  0  0  0  0  0  0  0  0  0  0  0
    8.8312    0.2113   24.2221 H   0  0  0  0  0  0  0  0  0  0  0  0
    7.6025    3.6084   22.9664 C   0  0  0  0  0  0  0  0  0  0  0  0
    6.7358    4.6607   23.0474 C   0  0  0  0  0  0  0  0  0  0  0  0
    8.3563    3.4303   23.7269 H   0  0  0  0  0  0  0  0  0  0  0  0
    6.3535    2.1092   20.1138 H   0  0  0  0  0  0  0  0  0  0  0  0
    6.1658    4.3292   20.6981 H   0  0  0  0  0  0  0  0  0  0  0  0
    3.6479    5.8366   21.5129 H   0  0  0  0  0  0  0  0  0  0  0  0
    4.0161    4.1343   21.5782 H   0  0  0  0  0  0  0  0  0  0  0  0
    3.0748    5.5417   23.6751 H   0  0  0  0  0  0  0  0  0  0  0  0
    4.0264    4.0817   23.8883 H   0  0  0  0  0  0  0  0  0  0  0  0
    4.7352    5.9174   25.3991 H   0  0  0  0  0  0  0  0  0  0  0  0
    5.1590    6.9354   24.0314 H   0  0  0  0  0  0  0  0  0  0  0  0
    7.3738    4.2200   27.1136 H   0  0  0  0  0  0  0  0  0  0  0  0
    5.8206    4.9509   26.7708 H   0  0  0  0  0  0  0  0  0  0  0  0
    6.7441    7.2262   27.3294 H   0  0  0  0  0  0  0  0  0  0  0  0
    8.3677    6.5204   27.5032 H   0  0  0  0  0  0  0  0  0  0  0  0
    7.0877    6.1105   28.6694 H   0  0  0  0  0  0  0  0  0  0  0  0
  1  2  1  0
  2  3  1  0
  3  4  2  0
  3  5  1  0
  5  6  1  0
  6  7  1  0
  7  8  1  0
  8  9  1  0
  9 10  2  0
 10 11  1  0
 11 12  2  0
 12 13  1  0
 13 14  1  0
 14 15  2  0
 14 16  1  0
 16 17  1  0
 17 18  2  0
 18 19  1  0
 19 20  2  0
 20 21  1  0
 21 22  2  0
 22 23  1  0
 23 24  2  0
 24 25  1  0
 25 26  2  0
 25 27  1  0
 24 28  1  0
 23 29  1  0
 22 30  1  0
 20 31  1  0
 18 32  1  0
 16 33  1  0
 16 34  1  0
 13 35  1  0
 35 36  1  0
 36 37  1  0
 36 38  1  0
 36 39  1  0
 35 40  1  0
 40 41  2  0
 41 42  1  0
 42 43  2  0
 43 44  1  0
 44 45  1  0
 44 46  2  0
 46 47  1  0
 43 48  1  0
 42 49  1  0
 41 50  1  0
 12 51  1  0
 51 52  2  0
 51 53  1  0
 11 54  1  0
 10 55  1  0
  8 56  1  0
  8 57  1  0
  7 58  1  0
  7 59  1  0
  6 60  1  0
  6 61  1  0
  2 62  1  0
  2 63  1  0
  1 64  1  0
  1 65  1  0
  1 66  1  0
 52  5  1  0
 52  9  1  0
 26 17  1  0
 46 40  1  0
 26 21  1  0
M  END
>  <cnnaffinities>  (21) 
[6.57109]

>  <score>  (21) 
6.57109

>  <index>  (21) 
20

>  <Smiles>  (21) 
C(C(C(=O)N1C(C(C(c2c(c(c(N(C(=O)C(c3c(nc(c4c(c(c(c(c34)[H])[H])[H])[H])[H])[H])([H])[H])N(C([H])([H])[H])c3c(c(c(c(Cl)c3[H])[H])[H])[H])c(c12)[H])[H])[H])([H])[H])([H])[H])([H])[H])([H])[H])([H])([H])[H]

>  <h>  (21) 
<NA>

>  <Training>  (21) 
True

>  <Success>  (21) 
True

>  <enamine_searched>  (21) 
False

>  <enamine_id>  (21) 
nan

$$$$

     RDKit          3D

 59 64  0  0  0  0  0  0  0  0999 V2000
    7.1156   -1.2421   24.2034 C   0  0  0  0  0  0  0  0  0  0  0  0
    7.9494   -1.1381   22.9148 C   0  0  1  0  0  0  0  0  0  0  0  0
    7.1179   -1.5360   21.6729 C   0  0  0  0  0  0  0  0  0  0  0  0
    6.8229   -0.2733   21.0342 N   0  0  0  0  0  0  0  0  0  0  0  0
    5.8977   -0.1265   19.9763 C   0  0  0  0  0  0  0  0  0  0  0  0
    6.0861   -0.7710   18.7812 C   0  0  0  0  0  0  0  0  0  0  0  0
    5.2804   -0.6325   17.7032 N   0  0  0  0  0  0  0  0  0  0  0  0
    4.2270    0.1407   17.8389 C   0  0  0  0  0  0  0  0  0  0  0  0
    3.8825    0.8223   19.0406 C   0  0  0  0  0  0  0  0  0  0  0  0
    2.7061    1.6074   19.1582 C   0  0  0  0  0  0  0  0  0  0  0  0
    2.3681    2.1816   20.3546 C   0  0  0  0  0  0  0  0  0  0  0  0
    3.2082    2.0327   21.4782 C   0  0  0  0  0  0  0  0  0  0  0  0
    4.3725    1.3094   21.3790 C   0  0  0  0  0  0  0  0  0  0  0  0
    4.7368    0.6832   20.1556 C   0  0  0  0  0  0  0  0  0  0  0  0
    5.0188    1.1899   22.2415 H   0  0  0  0  0  0  0  0  0  0  0  0
    2.9257    2.5036   22.4166 H   0  0  0  0  0  0  0  0  0  0  0  0
    1.4465    2.7495   20.4462 H   0  0  0  0  0  0  0  0  0  0  0  0
    2.0836    1.7380   18.2804 H   0  0  0  0  0  0  0  0  0  0  0  0
    3.5692    0.2379   16.9764 H   0  0  0  0  0  0  0  0  0  0  0  0
    6.9507   -1.4173   18.6406 H   0  0  0  0  0  0  0  0  0  0  0  0
    7.6795    0.7468   21.3839 C   0  0  0  0  0  0  0  0  0  0  0  0
    7.7681    1.8013   20.7868 O   0  0  0  0  0  0  0  0  0  0  0  0
    8.5271    0.2872   22.5890 C   0  0  1  0  0  0  0  0  0  0  0  0
    8.3847    1.2623   23.7915 C   0  0  0  0  0  0  0  0  0  0  0  0
    9.0060    2.5560   23.5532 N   0  0  0  0  0  0  0  0  0  0  0  0
    8.3457    3.7879   23.9935 C   0  0  0  0  0  0  0  0  0  0  0  0
    7.4867    4.4190   22.9284 C   0  0  0  0  0  0  0  0  0  0  0  0
    7.8744    5.4767   22.0819 C   0  0  0  0  0  0  0  0  0  0  0  0
    6.9518    5.7471   21.1682 N   0  0  0  0  0  0  0  0  0  0  0  0
    5.9632    4.8801   21.4157 N   0  0  0  0  0  0  0  0  0  0  0  0
    4.8106    4.8541   20.5403 C   0  0  0  0  0  0  0  0  0  0  0  0
    4.8057    3.9574   19.9042 H   0  0  0  0  0  0  0  0  0  0  0  0
    3.8739    4.8816   21.1069 H   0  0  0  0  0  0  0  0  0  0  0  0
    4.9013    5.7636   19.9497 H   0  0  0  0  0  0  0  0  0  0  0  0
    6.2317    4.0681   22.4689 C   0  0  0  0  0  0  0  0  0  0  0  0
    5.5064    3.3142   22.7768 H   0  0  0  0  0  0  0  0  0  0  0  0
    8.7996    6.0387   22.1075 H   0  0  0  0  0  0  0  0  0  0  0  0
    9.1444    4.4817   24.2751 H   0  0  0  0  0  0  0  0  0  0  0  0
    7.7683    3.5703   24.9006 H   0  0  0  0  0  0  0  0  0  0  0  0
   10.2301    2.6811   22.9458 C   0  0  0  0  0  0  0  0  0  0  0  0
   10.8276    3.7483   22.8797 O   0  0  0  0  0  0  0  0  0  0  0  0
   10.8084    1.4065   22.4043 C   0  0  0  0  0  0  0  0  0  0  0  0
   12.1831    1.3550   22.1605 C   0  0  0  0  0  0  0  0  0  0  0  0
   12.7848    0.1874   21.7277 C   0  0  0  0  0  0  0  0  0  0  0  0
   11.9653   -0.9016   21.4598 C   0  0  0  0  0  0  0  0  0  0  0  0
   12.5284   -2.0380   21.0204 F   0  0  0  0  0  0  0  0  0  0  0  0
   10.5936   -0.8538   21.6165 C   0  0  0  0  0  0  0  0  0  0  0  0
   10.0010    0.2770   22.1891 C   0  0  0  0  0  0  0  0  0  0  0  0
   10.0244   -1.7253   21.3134 H   0  0  0  0  0  0  0  0  0  0  0  0
   13.8551    0.1092   21.5694 H   0  0  0  0  0  0  0  0  0  0  0  0
   12.7824    2.2383   22.3486 H   0  0  0  0  0  0  0  0  0  0  0  0
    7.3263    1.4318   23.9948 H   0  0  0  0  0  0  0  0  0  0  0  0
    8.8293    0.7715   24.6747 H   0  0  0  0  0  0  0  0  0  0  0  0
    7.6850   -2.2063   21.0095 H   0  0  0  0  0  0  0  0  0  0  0  0
    6.1824   -2.0441   21.9365 H   0  0  0  0  0  0  0  0  0  0  0  0
    8.7831   -1.8363   23.0495 H   0  0  0  0  0  0  0  0  0  0  0  0
    6.7715   -2.2722   24.3430 H   0  0  0  0  0  0  0  0  0  0  0  0
    7.7146   -0.9837   25.0824 H   0  0  0  0  0  0  0  0  0  0  0  0
    6.2294   -0.5955   24.1896 H   0  0  0  0  0  0  0  0  0  0  0  0
  1  2  1  0
  2  3  1  0
  3  4  1  0
  4  5  1  0
  5  6  2  0
  6  7  1  0
  7  8  2  0
  8  9  1  0
  9 10  2  0
 10 11  1  0
 11 12  2  0
 12 13  1  0
 13 14  2  0
 13 15  1  0
 12 16  1  0
 11 17  1  0
 10 18  1  0
  8 19  1  0
  6 20  1  0
  4 21  1  0
 21 22  2  0
 21 23  1  0
 23 24  1  1
 24 25  1  0
 25 26  1  0
 26 27  1  0
 27 28  1  0
 28 29  2  0
 29 30  1  0
 30 31  1  0
 31 32  1  0
 31 33  1  0
 31 34  1  0
 30 35  1  0
 35 36  1  0
 28 37  1  0
 26 38  1  0
 26 39  1  0
 25 40  1  0
 40 41  2  0
 40 42  1  0
 42 43  2  0
 43 44  1  0
 44 45  2  0
 45 46  1  0
 45 47  1  0
 47 48  2  0
 47 49  1  0
 44 50  1  0
 43 51  1  0
 24 52  1  0
 24 53  1  0
  3 54  1  0
  3 55  1  0
  2 56  1  1
  1 57  1  0
  1 58  1  0
  1 59  1  0
 23  2  1  0
 35 27  2  0
 48 42  1  0
 14  5  1  0
 48 23  1  0
 14  9  1  0
M  END
>  <cnnaffinities>  (22) 
[6.12738, 6.23737, 6.06132, 6.14128]

>  <score>  (22) 
6.12738

>  <index>  (22) 
21

>  <Smiles>  (22) 
C([C@]1(C(N(c2c(nc(c3c(c(c(c(c23)[H])[H])[H])[H])[H])[H])C(=O)[C@]21C(N(C(c1c(nn(C([H])([H])[H])c1[H])[H])([H])[H])C(=O)c1c(c(c(F)c(c21)[H])[H])[H])([H])[H])([H])[H])[H])([H])([H])[H]

>  <h>  (22) 
<NA>

>  <Training>  (22) 
True

>  <Success>  (22) 
True

>  <enamine_searched>  (22) 
False

>  <enamine_id>  (22) 
nan

$$$$

     RDKit          3D

 41 44  0  0  0  0  0  0  0  0999 V2000
    5.3542   -1.8938   22.1519 O   0  0  0  0  0  0  0  0  0  0  0  0
    6.5089   -1.5108   22.0450 C   0  0  0  0  0  0  0  0  0  0  0  0
    6.8944   -0.3808   21.0808 C   0  0  0  0  0  0  0  0  0  0  0  0
    5.8806   -0.1827   19.9819 C   0  0  0  0  0  0  0  0  0  0  0  0
    6.0507   -0.8050   18.7712 C   0  0  0  0  0  0  0  0  0  0  0  0
    5.2447   -0.6591   17.6883 N   0  0  0  0  0  0  0  0  0  0  0  0
    4.1844    0.0984   17.8359 C   0  0  0  0  0  0  0  0  0  0  0  0
    3.8315    0.7483   19.0490 C   0  0  0  0  0  0  0  0  0  0  0  0
    2.6521    1.5289   19.1677 C   0  0  0  0  0  0  0  0  0  0  0  0
    2.3328    2.1302   20.3528 C   0  0  0  0  0  0  0  0  0  0  0  0
    3.1984    2.0033   21.4616 C   0  0  0  0  0  0  0  0  0  0  0  0
    4.3531    1.2647   21.3671 C   0  0  0  0  0  0  0  0  0  0  0  0
    4.7001    0.6077   20.1555 C   0  0  0  0  0  0  0  0  0  0  0  0
    5.0133    1.1715   22.2232 H   0  0  0  0  0  0  0  0  0  0  0  0
    2.9561    2.5131   22.3898 H   0  0  0  0  0  0  0  0  0  0  0  0
    1.4157    2.7063   20.4405 H   0  0  0  0  0  0  0  0  0  0  0  0
    2.0253    1.6552   18.2931 H   0  0  0  0  0  0  0  0  0  0  0  0
    3.5233    0.1912   16.9755 H   0  0  0  0  0  0  0  0  0  0  0  0
    6.9014   -1.4670   18.6024 H   0  0  0  0  0  0  0  0  0  0  0  0
    7.0532    0.5479   21.6474 H   0  0  0  0  0  0  0  0  0  0  0  0
    7.8668   -0.6292   20.6372 H   0  0  0  0  0  0  0  0  0  0  0  0
    7.5078   -2.1050   22.7585 N   0  0  0  0  0  0  0  0  0  0  0  0
    8.8494   -1.5504   22.8762 C   0  0  0  0  0  0  0  0  0  0  0  0
    9.4847   -1.9710   24.1979 C   0  0  0  0  0  0  0  0  0  0  0  0
    9.4416   -3.4707   24.3493 C   0  0  0  0  0  0  0  0  0  0  0  0
   10.4504   -4.1919   24.9818 C   0  0  0  0  0  0  0  0  0  0  0  0
   11.9040   -3.3912   25.5235 Cl  0  0  0  0  0  0  0  0  0  0  0  0
   10.3660   -5.5594   25.1863 C   0  0  0  0  0  0  0  0  0  0  0  0
    9.2655   -6.2512   24.6853 C   0  0  0  0  0  0  0  0  0  0  0  0
    8.2372   -5.5519   24.0571 C   0  0  0  0  0  0  0  0  0  0  0  0
    8.3122   -4.1657   23.9073 C   0  0  0  0  0  0  0  0  0  0  0  0
    7.1386   -3.3843   23.3614 C   0  0  0  0  0  0  0  0  0  0  0  0
    6.6273   -3.9819   22.5956 H   0  0  0  0  0  0  0  0  0  0  0  0
    6.3986   -3.1880   24.1553 H   0  0  0  0  0  0  0  0  0  0  0  0
    7.3496   -6.0705   23.6904 H   0  0  0  0  0  0  0  0  0  0  0  0
    9.2130   -7.3345   24.7580 H   0  0  0  0  0  0  0  0  0  0  0  0
   11.1870   -6.0254   25.7192 H   0  0  0  0  0  0  0  0  0  0  0  0
   10.5204   -1.6211   24.2355 H   0  0  0  0  0  0  0  0  0  0  0  0
    8.9377   -1.5219   25.0420 H   0  0  0  0  0  0  0  0  0  0  0  0
    9.4815   -1.8908   22.0390 H   0  0  0  0  0  0  0  0  0  0  0  0
    8.7787   -0.4561   22.8346 H   0  0  0  0  0  0  0  0  0  0  0  0
  1  2  2  0
  2  3  1  0
  3  4  1  0
  4  5  2  0
  5  6  1  0
  6  7  2  0
  7  8  1  0
  8  9  2  0
  9 10  1  0
 10 11  2  0
 11 12  1  0
 12 13  2  0
 12 14  1  0
 11 15  1  0
 10 16  1  0
  9 17  1  0
  7 18  1  0
  5 19  1  0
  3 20  1  0
  3 21  1  0
  2 22  1  0
 22 23  1  0
 23 24  1  0
 24 25  1  0
 25 26  2  0
 26 27  1  0
 26 28  1  0
 28 29  2  0
 29 30  1  0
 30 31  2  0
 31 32  1  0
 32 33  1  0
 32 34  1  0
 30 35  1  0
 29 36  1  0
 28 37  1  0
 24 38  1  0
 24 39  1  0
 23 40  1  0
 23 41  1  0
 13  4  1  0
 32 22  1  0
 13  8  1  0
 31 25  1  0
M  END
>  <cnnaffinities>  (23) 
[5.48691, 5.32706, 5.79713, 5.62633, 5.31709]

>  <score>  (23) 
5.48691

>  <index>  (23) 
22

>  <Smiles>  (23) 
O=C(C(c1c(nc(c2c(c(c(c(c12)[H])[H])[H])[H])[H])[H])([H])[H])N1C(C(c2c(Cl)c(c(c(c2C1([H])[H])[H])[H])[H])([H])[H])([H])[H]

>  <h>  (23) 
<NA>

>  <Training>  (23) 
True

>  <Success>  (23) 
True

>  <enamine_searched>  (23) 
False

>  <enamine_id>  (23) 
nan

$$$$

     RDKit          3D

 69 74  0  0  0  0  0  0  0  0999 V2000
    2.3920    5.8024   22.1723 C   0  0  0  0  0  0  0  0  0  0  0  0
    3.8364    6.2684   22.2625 C   0  0  1  0  0  0  0  0  0  0  0  0
    4.8047    5.0846   22.2988 C   0  0  0  0  0  0  0  0  0  0  0  0
    6.2483    5.5506   22.3157 N   0  0  1  0  0  4  0  0  0  0  0  0
    7.2317    4.4181   22.2584 C   0  0  0  0  0  0  0  0  0  0  0  0
    7.4353    3.7321   23.6157 C   0  0  0  0  0  0  0  0  0  0  0  0
    8.3763    2.6252   23.5222 N   0  0  0  0  0  0  0  0  0  0  0  0
    7.9451    1.2534   23.7012 C   0  0  0  0  0  0  0  0  0  0  0  0
    8.4829    0.3218   22.5864 C   0  0  2  0  0  0  0  0  0  0  0  0
    7.7923    0.6486   21.2424 C   0  0  0  0  0  0  0  0  0  0  0  0
    8.0079    1.5945   20.5105 O   0  0  0  0  0  0  0  0  0  0  0  0
    6.8511   -0.3215   20.9830 N   0  0  0  0  0  0  0  0  0  0  0  0
    5.8899   -0.1552   19.9553 C   0  0  0  0  0  0  0  0  0  0  0  0
    6.0619   -0.8054   18.7602 C   0  0  0  0  0  0  0  0  0  0  0  0
    5.2374   -0.6694   17.6956 N   0  0  0  0  0  0  0  0  0  0  0  0
    4.1822    0.0941   17.8432 C   0  0  0  0  0  0  0  0  0  0  0  0
    3.8333    0.7578   19.0554 C   0  0  0  0  0  0  0  0  0  0  0  0
    2.6440    1.5258   19.1854 C   0  0  0  0  0  0  0  0  0  0  0  0
    2.3295    2.1297   20.3683 C   0  0  0  0  0  0  0  0  0  0  0  0
    3.2011    2.0176   21.4721 C   0  0  0  0  0  0  0  0  0  0  0  0
    4.3698    1.2984   21.3680 C   0  0  0  0  0  0  0  0  0  0  0  0
    4.7154    0.6414   20.1516 C   0  0  0  0  0  0  0  0  0  0  0  0
    5.0352    1.2216   22.2191 H   0  0  0  0  0  0  0  0  0  0  0  0
    2.9672    2.5259   22.4033 H   0  0  0  0  0  0  0  0  0  0  0  0
    1.4074    2.7056   20.4556 H   0  0  0  0  0  0  0  0  0  0  0  0
    2.0030    1.6382   18.3204 H   0  0  0  0  0  0  0  0  0  0  0  0
    3.5243    0.1862   16.9811 H   0  0  0  0  0  0  0  0  0  0  0  0
    6.9080   -1.4730   18.6133 H   0  0  0  0  0  0  0  0  0  0  0  0
    6.7554   -1.3451   22.0010 C   0  0  0  0  0  0  0  0  0  0  0  0
    8.0470   -1.1634   22.8247 C   0  0  2  0  0  0  0  0  0  0  0  0
    7.8696   -1.6168   24.2793 C   0  0  0  0  0  0  0  0  0  0  0  0
    7.0387   -1.0820   24.7592 H   0  0  0  0  0  0  0  0  0  0  0  0
    7.6336   -2.6873   24.3272 H   0  0  0  0  0  0  0  0  0  0  0  0
    8.7701   -1.4433   24.8810 H   0  0  0  0  0  0  0  0  0  0  0  0
    8.8227   -1.7808   22.3627 H   0  0  0  0  0  0  0  0  0  0  0  0
    6.6768   -2.3347   21.5350 H   0  0  0  0  0  0  0  0  0  0  0  0
    5.8573   -1.2112   22.6281 H   0  0  0  0  0  0  0  0  0  0  0  0
    9.9742    0.5604   22.4602 C   0  0  0  0  0  0  0  0  0  0  0  0
   10.7871   -0.3794   21.8179 C   0  0  0  0  0  0  0  0  0  0  0  0
   12.1463   -0.1548   21.7095 C   0  0  0  0  0  0  0  0  0  0  0  0
   13.1213   -1.3715   20.9378 Cl  0  0  0  0  0  0  0  0  0  0  0  0
   12.7311    1.0256   22.1651 C   0  0  0  0  0  0  0  0  0  0  0  0
   11.9210    1.9895   22.7325 C   0  0  0  0  0  0  0  0  0  0  0  0
   10.5497    1.7754   22.8610 C   0  0  0  0  0  0  0  0  0  0  0  0
    9.6982    2.9154   23.3496 C   0  0  0  0  0  0  0  0  0  0  0  0
   10.1528    4.0378   23.5321 O   0  0  0  0  0  0  0  0  0  0  0  0
   12.3133    2.9401   23.0782 H   0  0  0  0  0  0  0  0  0  0  0  0
   13.7940    1.1927   22.0355 H   0  0  0  0  0  0  0  0  0  0  0  0
   10.3788   -1.2700   21.3527 H   0  0  0  0  0  0  0  0  0  0  0  0
    8.2943    0.8647   24.6721 H   0  0  0  0  0  0  0  0  0  0  0  0
    6.8504    1.2396   23.6761 H   0  0  0  0  0  0  0  0  0  0  0  0
    6.4881    3.3162   23.9789 H   0  0  0  0  0  0  0  0  0  0  0  0
    7.8129    4.4524   24.3504 H   0  0  0  0  0  0  0  0  0  0  0  0
    6.8770    3.6856   21.5235 H   0  0  0  0  0  0  0  0  0  0  0  0
    8.1871    4.8225   21.9045 H   0  0  0  0  0  0  0  0  0  0  0  0
    6.4614    6.5253   21.1817 C   0  0  0  0  0  0  0  0  0  0  0  0
    5.4126    7.6275   21.2051 C   0  0  0  0  0  0  0  0  0  0  0  0
    4.1018    7.1082   21.1516 O   0  0  0  0  0  0  0  0  0  0  0  0
    5.5215    8.2753   20.3300 H   0  0  0  0  0  0  0  0  0  0  0  0
    5.5486    8.2359   22.1164 H   0  0  0  0  0  0  0  0  0  0  0  0
    6.3967    5.9748   20.2372 H   0  0  0  0  0  0  0  0  0  0  0  0
    7.4661    6.9465   21.2750 H   0  0  0  0  0  0  0  0  0  0  0  0
    6.4212    6.0614   23.2089 H   0  0  0  0  0  0  0  0  0  0  0  0
    4.6068    4.4871   23.1954 H   0  0  0  0  0  0  0  0  0  0  0  0
    4.6515    4.4532   21.4121 H   0  0  0  0  0  0  0  0  0  0  0  0
    3.9937    6.8584   23.1845 H   0  0  0  0  0  0  0  0  0  0  0  0
    1.7035    6.6527   22.1552 H   0  0  0  0  0  0  0  0  0  0  0  0
    2.2346    5.2142   21.2582 H   0  0  0  0  0  0  0  0  0  0  0  0
    2.1483    5.1661   23.0321 H   0  0  0  0  0  0  0  0  0  0  0  0
  1  2  1  0
  2  3  1  0
  3  4  1  0
  4  5  1  0
  5  6  1  0
  6  7  1  0
  7  8  1  0
  9  8  1  1
  9 10  1  0
 10 11  2  0
 10 12  1  0
 12 13  1  0
 13 14  2  0
 14 15  1  0
 15 16  2  0
 16 17  1  0
 17 18  2  0
 18 19  1  0
 19 20  2  0
 20 21  1  0
 21 22  2  0
 21 23  1  0
 20 24  1  0
 19 25  1  0
 18 26  1  0
 16 27  1  0
 14 28  1  0
 12 29  1  0
 29 30  1  0
 30 31  1  0
 31 32  1  0
 31 33  1  0
 31 34  1  0
 30 35  1  6
 29 36  1  0
 29 37  1  0
  9 38  1  0
 38 39  2  0
 39 40  1  0
 40 41  1  0
 40 42  2  0
 42 43  1  0
 43 44  2  0
 44 45  1  0
 45 46  2  0
 43 47  1  0
 42 48  1  0
 39 49  1  0
  8 50  1  0
  8 51  1  0
  6 52  1  0
  6 53  1  0
  5 54  1  0
  5 55  1  0
  4 56  1  0
 56 57  1  0
 57 58  1  0
 57 59  1  0
 57 60  1  0
 56 61  1  0
 56 62  1  0
  4 63  1  1
  3 64  1  0
  3 65  1  0
  2 66  1  1
  1 67  1  0
  1 68  1  0
  1 69  1  0
 58  2  1  0
 45  7  1  0
 30  9  1  0
 44 38  1  0
 22 13  1  0
 22 17  1  0
M  CHG  1   4   1
M  END
>  <cnnaffinities>  (24) 
[6.52484, 6.5757, 6.4464]

>  <score>  (24) 
6.52484

>  <index>  (24) 
23

>  <Smiles>  (24) 
C([C@]1(C([N@@+](C(C(N2C([C@@]3(C(=O)N(c4c(nc(c5c(c(c(c(c45)[H])[H])[H])[H])[H])[H])C([C@@]3(C([H])([H])[H])[H])([H])[H])c3c(c(Cl)c(c(c3C2=O)[H])[H])[H])([H])[H])([H])[H])([H])[H])(C(C(O1)([H])[H])([H])[H])[H])([H])[H])[H])([H])([H])[H]

>  <h>  (24) 
<NA>

>  <Training>  (24) 
True

>  <Success>  (24) 
True

>  <enamine_searched>  (24) 
False

>  <enamine_id>  (24) 
nan

$$$$

     RDKit          3D

 70 75  0  0  0  0  0  0  0  0999 V2000
    6.0589    4.1252   21.6467 C   0  0  0  0  0  0  0  0  0  0  0  0
    7.5184    4.1881   21.4742 N   0  0  0  0  0  4  0  0  0  0  0  0
    8.2370    4.8352   22.5990 C   0  0  0  0  0  0  0  0  0  0  0  0
    8.4357    3.8999   23.7941 C   0  0  0  0  0  0  0  0  0  0  0  0
    9.0737    2.6507   23.3852 N   0  0  0  0  0  0  0  0  0  0  0  0
    8.3941    1.3814   23.5860 C   0  0  0  0  0  0  0  0  0  0  0  0
    8.7097    0.3591   22.4586 C   0  0  2  0  0  0  0  0  0  0  0  0
    7.9542    0.7549   21.1780 C   0  0  0  0  0  0  0  0  0  0  0  0
    8.1749    1.7695   20.5329 O   0  0  0  0  0  0  0  0  0  0  0  0
    6.9607   -0.1516   20.9074 N   0  0  0  0  0  0  0  0  0  0  0  0
    6.0083    0.0280   19.8564 C   0  0  0  0  0  0  0  0  0  0  0  0
    6.2351   -0.5324   18.6249 C   0  0  0  0  0  0  0  0  0  0  0  0
    5.3991   -0.4205   17.5626 N   0  0  0  0  0  0  0  0  0  0  0  0
    4.2970    0.2735   17.7201 C   0  0  0  0  0  0  0  0  0  0  0  0
    3.9240    0.8934   18.9484 C   0  0  0  0  0  0  0  0  0  0  0  0
    2.7279    1.6503   19.0824 C   0  0  0  0  0  0  0  0  0  0  0  0
    2.3707    2.1829   20.2903 C   0  0  0  0  0  0  0  0  0  0  0  0
    3.2048    2.0065   21.4154 C   0  0  0  0  0  0  0  0  0  0  0  0
    4.3823    1.3047   21.3006 C   0  0  0  0  0  0  0  0  0  0  0  0
    4.7838    0.7403   20.0613 C   0  0  0  0  0  0  0  0  0  0  0  0
    5.0380    1.2019   22.1598 H   0  0  0  0  0  0  0  0  0  0  0  0
    2.9220    2.4403   22.3683 H   0  0  0  0  0  0  0  0  0  0  0  0
    1.4480    2.7470   20.3961 H   0  0  0  0  0  0  0  0  0  0  0  0
    2.1144    1.8055   18.1998 H   0  0  0  0  0  0  0  0  0  0  0  0
    3.6284    0.3744   16.8614 H   0  0  0  0  0  0  0  0  0  0  0  0
    7.1362   -1.1165   18.4517 H   0  0  0  0  0  0  0  0  0  0  0  0
    6.7565   -1.0968   21.9924 C   0  0  0  0  0  0  0  0  0  0  0  0
    8.1001   -1.0425   22.7379 C   0  0  2  0  0  0  0  0  0  0  0  0
    8.0142   -1.4631   24.2052 C   0  0  0  0  0  0  0  0  0  0  0  0
    7.6463   -2.8180   24.3432 O   0  0  0  0  0  0  0  0  0  0  0  0
    8.7085   -3.7546   24.4043 C   0  0  0  0  0  0  0  0  0  0  0  0
    8.1107   -5.0841   23.9882 C   0  0  0  0  0  0  0  0  0  0  0  0
    8.7809   -6.4085   24.3777 C   0  0  0  0  0  0  0  0  0  0  0  0
    7.5964   -6.8660   25.0404 O   0  0  0  0  0  0  0  0  0  0  0  0
    6.9593   -5.5966   24.8691 C   0  0  0  0  0  0  0  0  0  0  0  0
    6.8625   -5.0550   25.8192 H   0  0  0  0  0  0  0  0  0  0  0  0
    5.9642   -5.6830   24.4212 H   0  0  0  0  0  0  0  0  0  0  0  0
    9.0619   -7.0912   23.5676 H   0  0  0  0  0  0  0  0  0  0  0  0
    9.6309   -6.3262   25.0675 H   0  0  0  0  0  0  0  0  0  0  0  0
    7.8590   -5.0334   22.9276 H   0  0  0  0  0  0  0  0  0  0  0  0
    9.5310   -3.4748   23.7298 H   0  0  0  0  0  0  0  0  0  0  0  0
    9.1204   -3.7828   25.4253 H   0  0  0  0  0  0  0  0  0  0  0  0
    8.9630   -1.2640   24.7284 H   0  0  0  0  0  0  0  0  0  0  0  0
    7.2296   -0.8775   24.7042 H   0  0  0  0  0  0  0  0  0  0  0  0
    8.7419   -1.7647   22.2326 H   0  0  0  0  0  0  0  0  0  0  0  0
    6.5498   -2.0977   21.6043 H   0  0  0  0  0  0  0  0  0  0  0  0
    5.9067   -0.8117   22.6333 H   0  0  0  0  0  0  0  0  0  0  0  0
   10.2142    0.3481   22.2212 C   0  0  0  0  0  0  0  0  0  0  0  0
   10.8182   -0.7255   21.5542 C   0  0  0  0  0  0  0  0  0  0  0  0
   12.1892   -0.7644   21.3983 C   0  0  0  0  0  0  0  0  0  0  0  0
   12.8853   -2.1001   20.5337 Cl  0  0  0  0  0  0  0  0  0  0  0  0
   13.0042    0.2754   21.8377 C   0  0  0  0  0  0  0  0  0  0  0  0
   12.4107    1.3782   22.4173 C   0  0  0  0  0  0  0  0  0  0  0  0
   11.0238    1.4335   22.5850 C   0  0  0  0  0  0  0  0  0  0  0  0
   10.4132    2.7043   23.1039 C   0  0  0  0  0  0  0  0  0  0  0  0
   11.0724    3.7276   23.2513 O   0  0  0  0  0  0  0  0  0  0  0  0
   13.0147    2.2144   22.7536 H   0  0  0  0  0  0  0  0  0  0  0  0
   14.0737    0.2381   21.6727 H   0  0  0  0  0  0  0  0  0  0  0  0
   10.2365   -1.5209   21.1026 H   0  0  0  0  0  0  0  0  0  0  0  0
    7.3150    1.5750   23.6084 H   0  0  0  0  0  0  0  0  0  0  0  0
    8.6943    0.9554   24.5552 H   0  0  0  0  0  0  0  0  0  0  0  0
    7.4912    3.6724   24.3060 H   0  0  0  0  0  0  0  0  0  0  0  0
    9.0945    4.4082   24.4979 H   0  0  0  0  0  0  0  0  0  0  0  0
    7.6968    5.7367   22.9172 H   0  0  0  0  0  0  0  0  0  0  0  0
    9.2241    5.1361   22.2438 H   0  0  0  0  0  0  0  0  0  0  0  0
    7.7690    4.6962   20.6138 H   0  0  0  0  0  0  0  0  0  0  0  0
    7.9002    3.2340   21.3323 H   0  0  0  0  0  0  0  0  0  0  0  0
    5.5724    3.8562   20.7060 H   0  0  0  0  0  0  0  0  0  0  0  0
    5.6542    5.0775   22.0095 H   0  0  0  0  0  0  0  0  0  0  0  0
    5.8126    3.3444   22.3703 H   0  0  0  0  0  0  0  0  0  0  0  0
  1  2  1  0
  2  3  1  0
  3  4  1  0
  4  5  1  0
  5  6  1  0
  7  6  1  1
  7  8  1  0
  8  9  2  0
  8 10  1  0
 10 11  1  0
 11 12  2  0
 12 13  1  0
 13 14  2  0
 14 15  1  0
 15 16  2  0
 16 17  1  0
 17 18  2  0
 18 19  1  0
 19 20  2  0
 19 21  1  0
 18 22  1  0
 17 23  1  0
 16 24  1  0
 14 25  1  0
 12 26  1  0
 10 27  1  0
 27 28  1  0
 28 29  1  0
 29 30  1  0
 30 31  1  0
 31 32  1  0
 32 33  1  0
 33 34  1  0
 34 35  1  0
 35 36  1  0
 35 37  1  0
 33 38  1  0
 33 39  1  0
 32 40  1  0
 31 41  1  0
 31 42  1  0
 29 43  1  0
 29 44  1  0
 28 45  1  6
 27 46  1  0
 27 47  1  0
  7 48  1  0
 48 49  2  0
 49 50  1  0
 50 51  1  0
 50 52  2  0
 52 53  1  0
 53 54  2  0
 54 55  1  0
 55 56  2  0
 53 57  1  0
 52 58  1  0
 49 59  1  0
  6 60  1  0
  6 61  1  0
  4 62  1  0
  4 63  1  0
  3 64  1  0
  3 65  1  0
  2 66  1  0
  2 67  1  0
  1 68  1  0
  1 69  1  0
  1 70  1  0
 55  5  1  0
 28  7  1  0
 35 32  1  0
 54 48  1  0
 20 11  1  0
 20 15  1  0
M  CHG  1   2   1
M  END
>  <cnnaffinities>  (25) 
[6.41269]

>  <score>  (25) 
6.41269

>  <index>  (25) 
24

>  <Smiles>  (25) 
C([N+](C(C(N1C([C@@]2(C(=O)N(c3c(nc(c4c(c(c(c(c34)[H])[H])[H])[H])[H])[H])C([C@@]2(C(OC(C2(C(OC2([H])[H])([H])[H])[H])([H])[H])([H])[H])[H])([H])[H])c2c(c(Cl)c(c(c2C1=O)[H])[H])[H])([H])[H])([H])[H])([H])[H])([H])[H])([H])([H])[H]

>  <h>  (25) 
<NA>

>  <Training>  (25) 
True

>  <Success>  (25) 
True

>  <enamine_searched>  (25) 
False

>  <enamine_id>  (25) 
nan

$$$$

     RDKit          3D

 68 73  0  0  0  0  0  0  0  0999 V2000
    7.1303    6.3901   21.9405 C   0  0  0  0  0  0  0  0  0  0  0  0
    7.2749    5.5463   23.1069 N   0  0  0  0  0  0  0  0  0  0  0  0
    6.6559    4.3328   23.1126 C   0  0  0  0  0  0  0  0  0  0  0  0
    5.8410    3.9781   22.2779 O   0  0  0  0  0  0  0  0  0  0  0  0
    7.0858    3.4266   24.2708 C   0  0  0  0  0  0  0  0  0  0  0  0
    8.0776    2.4606   23.8163 N   0  0  0  0  0  0  0  0  0  0  0  0
    7.7914    1.0341   23.8351 C   0  0  0  0  0  0  0  0  0  0  0  0
    8.4178    0.2853   22.6190 C   0  0  2  0  0  0  0  0  0  0  0  0
    7.6879    0.6656   21.3136 C   0  0  0  0  0  0  0  0  0  0  0  0
    7.8166    1.6629   20.6401 O   0  0  0  0  0  0  0  0  0  0  0  0
    6.8019   -0.3436   21.0129 N   0  0  0  0  0  0  0  0  0  0  0  0
    5.8736   -0.1833   19.9661 C   0  0  0  0  0  0  0  0  0  0  0  0
    6.0806   -0.7951   18.7575 C   0  0  0  0  0  0  0  0  0  0  0  0
    5.2775   -0.6472   17.6778 N   0  0  0  0  0  0  0  0  0  0  0  0
    4.2158    0.1114   17.8267 C   0  0  0  0  0  0  0  0  0  0  0  0
    3.8653    0.7724   19.0395 C   0  0  0  0  0  0  0  0  0  0  0  0
    2.6922    1.5639   19.1575 C   0  0  0  0  0  0  0  0  0  0  0  0
    2.3620    2.1485   20.3483 C   0  0  0  0  0  0  0  0  0  0  0  0
    3.2157    2.0153   21.4658 C   0  0  0  0  0  0  0  0  0  0  0  0
    4.3760    1.2888   21.3680 C   0  0  0  0  0  0  0  0  0  0  0  0
    4.7184    0.6325   20.1528 C   0  0  0  0  0  0  0  0  0  0  0  0
    5.0476    1.2353   22.2216 H   0  0  0  0  0  0  0  0  0  0  0  0
    2.9686    2.5122   22.3981 H   0  0  0  0  0  0  0  0  0  0  0  0
    1.4426    2.7198   20.4404 H   0  0  0  0  0  0  0  0  0  0  0  0
    2.0773    1.7040   18.2754 H   0  0  0  0  0  0  0  0  0  0  0  0
    3.5607    0.2167   16.9637 H   0  0  0  0  0  0  0  0  0  0  0  0
    6.9595   -1.4243   18.6249 H   0  0  0  0  0  0  0  0  0  0  0  0
    6.8729   -1.5033   21.8651 C   0  0  0  0  0  0  0  0  0  0  0  0
    8.1602   -1.2518   22.6575 C   0  0  2  0  0  0  0  0  0  0  0  0
    8.1656   -1.9339   24.0308 C   0  0  0  0  0  0  0  0  0  0  0  0
    8.1514   -3.3786   23.9580 N   0  0  0  0  0  0  0  0  0  0  0  0
    6.9937   -4.1429   23.9178 C   0  0  0  0  0  0  0  0  0  0  0  0
    5.6547   -3.7884   24.2247 C   0  0  0  0  0  0  0  0  0  0  0  0
    4.8411   -4.8404   24.1357 N   0  0  0  0  0  0  0  0  0  0  0  0
    5.6223   -5.8595   23.7718 N   0  0  0  0  0  0  0  0  0  0  0  0
    5.0629   -7.1852   23.6191 C   0  0  0  0  0  0  0  0  0  0  0  0
    5.1710   -7.7777   24.5364 H   0  0  0  0  0  0  0  0  0  0  0  0
    5.5773   -7.6914   22.7983 H   0  0  0  0  0  0  0  0  0  0  0  0
    4.0014   -7.0823   23.3803 H   0  0  0  0  0  0  0  0  0  0  0  0
    6.9251   -5.4943   23.6304 C   0  0  0  0  0  0  0  0  0  0  0  0
    7.6950   -6.2040   23.3364 H   0  0  0  0  0  0  0  0  0  0  0  0
    5.2386   -2.8222   24.4964 H   0  0  0  0  0  0  0  0  0  0  0  0
    8.9535   -3.8232   23.5355 H   0  0  0  0  0  0  0  0  0  0  0  0
    9.0656   -1.6289   24.5792 H   0  0  0  0  0  0  0  0  0  0  0  0
    7.2874   -1.6255   24.6138 H   0  0  0  0  0  0  0  0  0  0  0  0
    8.9633   -1.7001   22.0679 H   0  0  0  0  0  0  0  0  0  0  0  0
    6.9192   -2.4245   21.2727 H   0  0  0  0  0  0  0  0  0  0  0  0
    5.9884   -1.5844   22.5148 H   0  0  0  0  0  0  0  0  0  0  0  0
    9.8744    0.6826   22.5285 C   0  0  0  0  0  0  0  0  0  0  0  0
   10.8185   -0.1490   21.9110 C   0  0  0  0  0  0  0  0  0  0  0  0
   12.1554    0.1958   21.9381 C   0  0  0  0  0  0  0  0  0  0  0  0
   13.3255   -0.9507   21.3463 Cl  0  0  0  0  0  0  0  0  0  0  0  0
   12.5911    1.4122   22.4552 C   0  0  0  0  0  0  0  0  0  0  0  0
   11.6459    2.2924   22.9521 C   0  0  0  0  0  0  0  0  0  0  0  0
   10.3017    1.9306   22.9999 C   0  0  0  0  0  0  0  0  0  0  0  0
    9.3228    2.9283   23.5343 C   0  0  0  0  0  0  0  0  0  0  0  0
    9.6206    4.1135   23.6772 O   0  0  0  0  0  0  0  0  0  0  0  0
   11.9154    3.2779   23.3090 H   0  0  0  0  0  0  0  0  0  0  0  0
   13.6501    1.6478   22.4403 H   0  0  0  0  0  0  0  0  0  0  0  0
   10.5332   -1.0463   21.3706 H   0  0  0  0  0  0  0  0  0  0  0  0
    6.7017    0.9083   23.8534 H   0  0  0  0  0  0  0  0  0  0  0  0
    8.2036    0.6100   24.7590 H   0  0  0  0  0  0  0  0  0  0  0  0
    7.4798    4.0298   25.0970 H   0  0  0  0  0  0  0  0  0  0  0  0
    6.2180    2.8776   24.6378 H   0  0  0  0  0  0  0  0  0  0  0  0
    8.2118    5.4939   23.5005 H   0  0  0  0  0  0  0  0  0  0  0  0
    7.4838    5.8811   21.0376 H   0  0  0  0  0  0  0  0  0  0  0  0
    7.7121    7.2980   22.1087 H   0  0  0  0  0  0  0  0  0  0  0  0
    6.0793    6.6564   21.8010 H   0  0  0  0  0  0  0  0  0  0  0  0
  1  2  1  0
  2  3  1  0
  3  4  2  0
  3  5  1  0
  5  6  1  0
  6  7  1  0
  8  7  1  1
  8  9  1  0
  9 10  2  0
  9 11  1  0
 11 12  1  0
 12 13  2  0
 13 14  1  0
 14 15  2  0
 15 16  1  0
 16 17  2  0
 17 18  1  0
 18 19  2  0
 19 20  1  0
 20 21  2  0
 20 22  1  0
 19 23  1  0
 18 24  1  0
 17 25  1  0
 15 26  1  0
 13 27  1  0
 11 28  1  0
 28 29  1  0
 29 30  1  0
 30 31  1  0
 31 32  1  0
 32 33  1  0
 33 34  2  0
 34 35  1  0
 35 36  1  0
 36 37  1  0
 36 38  1  0
 36 39  1  0
 35 40  1  0
 40 41  1  0
 33 42  1  0
 31 43  1  0
 30 44  1  0
 30 45  1  0
 29 46  1  6
 28 47  1  0
 28 48  1  0
  8 49  1  0
 49 50  2  0
 50 51  1  0
 51 52  1  0
 51 53  2  0
 53 54  1  0
 54 55  2  0
 55 56  1  0
 56 57  2  0
 54 58  1  0
 53 59  1  0
 50 60  1  0
  7 61  1  0
  7 62  1  0
  5 63  1  0
  5 64  1  0
  2 65  1  0
  1 66  1  0
  1 67  1  0
  1 68  1  0
 56  6  1  0
 29  8  1  0
 40 32  2  0
 55 49  1  0
 21 12  1  0
 21 16  1  0
M  END
>  <cnnaffinities>  (26) 
[6.98135, 6.10718, 6.76339]

>  <score>  (26) 
6.98135

>  <index>  (26) 
25

>  <Smiles>  (26) 
C(N(C(=O)C(N1C([C@@]2(C(=O)N(c3c(nc(c4c(c(c(c(c34)[H])[H])[H])[H])[H])[H])C([C@@]2(C(N(c2c(nn(C([H])([H])[H])c2[H])[H])[H])([H])[H])[H])([H])[H])c2c(c(Cl)c(c(c2C1=O)[H])[H])[H])([H])[H])([H])[H])[H])([H])([H])[H]

>  <h>  (26) 
<NA>

>  <Training>  (26) 
True

>  <Success>  (26) 
True

>  <enamine_searched>  (26) 
False

>  <enamine_id>  (26) 
nan

$$$$

     RDKit          3D

 43 47  0  0  0  0  0  0  0  0999 V2000
    8.5617    0.8306   20.3113 O   0  0  0  0  0  0  0  0  0  0  0  0
    8.1104   -0.0661   20.9863 C   0  0  0  0  0  0  0  0  0  0  0  0
    8.7515   -0.8587   21.8955 N   0  0  0  0  0  0  0  0  0  0  0  0
    7.8549   -1.4423   22.8587 C   0  0  1  0  0  0  0  0  0  0  0  0
    8.1345   -2.8994   23.2689 C   0  0  0  0  0  0  0  0  0  0  0  0
    8.4200   -2.4419   24.7340 C   0  0  2  0  0  0  0  0  0  0  0  0
    7.5527   -3.0612   25.7876 C   0  0  0  0  0  0  0  0  0  0  0  0
    6.1577   -3.0377   25.6551 C   0  0  0  0  0  0  0  0  0  0  0  0
    5.3261   -3.6142   26.6089 C   0  0  0  0  0  0  0  0  0  0  0  0
    5.8831   -4.1796   27.7535 C   0  0  0  0  0  0  0  0  0  0  0  0
    7.2535   -4.1205   27.9509 C   0  0  0  0  0  0  0  0  0  0  0  0
    8.0785   -3.6344   26.9434 C   0  0  0  0  0  0  0  0  0  0  0  0
    9.8069   -3.8092   27.1405 Cl  0  0  0  0  0  0  0  0  0  0  0  0
    7.6977   -4.4748   28.8763 H   0  0  0  0  0  0  0  0  0  0  0  0
    5.2675   -4.6839   28.4921 H   0  0  0  0  0  0  0  0  0  0  0  0
    4.2472   -3.5853   26.4773 H   0  0  0  0  0  0  0  0  0  0  0  0
    5.7206   -2.5397   24.7884 H   0  0  0  0  0  0  0  0  0  0  0  0
    8.0360   -0.9807   24.3301 C   0  0  0  0  0  0  0  0  0  0  0  0
    8.8183   -0.2279   24.4726 H   0  0  0  0  0  0  0  0  0  0  0  0
    7.1223   -0.5991   24.7985 H   0  0  0  0  0  0  0  0  0  0  0  0
    9.4788   -2.5297   24.9929 H   0  0  0  0  0  0  0  0  0  0  0  0
    8.9741   -3.3490   22.7329 H   0  0  0  0  0  0  0  0  0  0  0  0
    7.2583   -3.5452   23.1591 H   0  0  0  0  0  0  0  0  0  0  0  0
    6.5053   -1.1857   22.2197 C   0  0  0  0  0  0  0  0  0  0  0  0
    5.4284   -1.5199   22.6558 O   0  0  0  0  0  0  0  0  0  0  0  0
    6.7538   -0.4579   21.0540 N   0  0  0  0  0  0  0  0  0  0  0  0
    5.8358   -0.2296   19.9968 C   0  0  0  0  0  0  0  0  0  0  0  0
    6.0553   -0.8242   18.7792 C   0  0  0  0  0  0  0  0  0  0  0  0
    5.2529   -0.6580   17.7038 N   0  0  0  0  0  0  0  0  0  0  0  0
    4.1918    0.0944   17.8560 C   0  0  0  0  0  0  0  0  0  0  0  0
    3.8380    0.7504   19.0658 C   0  0  0  0  0  0  0  0  0  0  0  0
    2.6566    1.5278   19.1800 C   0  0  0  0  0  0  0  0  0  0  0  0
    2.3548    2.1634   20.3490 C   0  0  0  0  0  0  0  0  0  0  0  0
    3.2414    2.0781   21.4455 C   0  0  0  0  0  0  0  0  0  0  0  0
    4.3939    1.3377   21.3613 C   0  0  0  0  0  0  0  0  0  0  0  0
    4.7004    0.6194   20.1715 C   0  0  0  0  0  0  0  0  0  0  0  0
    5.0758    1.2847   22.2043 H   0  0  0  0  0  0  0  0  0  0  0  0
    3.0074    2.6087   22.3618 H   0  0  0  0  0  0  0  0  0  0  0  0
    1.4421    2.7482   20.4350 H   0  0  0  0  0  0  0  0  0  0  0  0
    2.0108    1.6189   18.3177 H   0  0  0  0  0  0  0  0  0  0  0  0
    3.5356    0.1893   16.9939 H   0  0  0  0  0  0  0  0  0  0  0  0
    6.9097   -1.4811   18.6305 H   0  0  0  0  0  0  0  0  0  0  0  0
    9.7480   -0.8240   22.0286 H   0  0  0  0  0  0  0  0  0  0  0  0
  1  2  2  0
  2  3  1  0
  4  3  1  6
  4  5  1  0
  5  6  1  0
  6  7  1  0
  7  8  2  0
  8  9  1  0
  9 10  2  0
 10 11  1  0
 11 12  2  0
 12 13  1  0
 11 14  1  0
 10 15  1  0
  9 16  1  0
  8 17  1  0
  6 18  1  0
 18 19  1  0
 18 20  1  0
  6 21  1  1
  5 22  1  0
  5 23  1  0
  4 24  1  0
 24 25  2  0
 24 26  1  0
 26 27  1  0
 27 28  2  0
 28 29  1  0
 29 30  2  0
 30 31  1  0
 31 32  2  0
 32 33  1  0
 33 34  2  0
 34 35  1  0
 35 36  2  0
 35 37  1  0
 34 38  1  0
 33 39  1  0
 32 40  1  0
 30 41  1  0
 28 42  1  0
  3 43  1  0
 26  2  1  0
 36 27  1  0
 18  4  1  0
 36 31  1  0
 12  7  1  0
M  END
>  <cnnaffinities>  (27) 
[5.70965, 5.57673, 5.69732, 5.54045]

>  <score>  (27) 
5.70965

>  <index>  (27) 
26

>  <Smiles>  (27) 
O=C1N([C@]2(C([C@](c3c(c(c(c(c3Cl)[H])[H])[H])[H])(C2([H])[H])[H])([H])[H])C(=O)N1c1c(nc(c2c(c(c(c(c12)[H])[H])[H])[H])[H])[H])[H]

>  <h>  (27) 
<NA>

>  <Training>  (27) 
True

>  <Success>  (27) 
True

>  <enamine_searched>  (27) 
False

>  <enamine_id>  (27) 
nan

$$$$

     RDKit          3D

 46 48  0  0  0  0  0  0  0  0999 V2000
    7.9037    1.7392   24.0125 C   0  0  0  0  0  0  0  0  0  0  0  0
    8.3381    0.4545   24.7006 C   0  0  0  0  0  0  0  0  0  0  0  0
    8.2142   -0.7805   23.8051 C   0  0  1  0  0  0  0  0  0  0  0  0
    8.9216   -2.0347   24.3605 C   0  0  0  0  0  0  0  0  0  0  0  0
    8.1373   -2.8895   25.3643 C   0  0  1  0  0  0  0  0  0  0  0  0
    8.3305   -2.4868   26.8147 C   0  0  0  0  0  0  0  0  0  0  0  0
    7.9216   -3.4637   27.6528 F   0  0  0  0  0  0  0  0  0  0  0  0
    7.6326   -1.3847   27.1643 F   0  0  0  0  0  0  0  0  0  0  0  0
    9.6265   -2.2557   27.0958 F   0  0  0  0  0  0  0  0  0  0  0  0
    6.6623   -3.0193   24.9943 C   0  0  0  0  0  0  0  0  0  0  0  0
    6.0468   -1.7024   24.5346 C   0  0  0  0  0  0  0  0  0  0  0  0
    6.8203   -1.0872   23.4593 N   0  0  0  0  0  0  0  0  0  0  0  0
    6.3902   -1.3087   22.1566 C   0  0  0  0  0  0  0  0  0  0  0  0
    5.5943   -2.1870   21.8786 O   0  0  0  0  0  0  0  0  0  0  0  0
    6.8858   -0.3401   21.0677 C   0  0  0  0  0  0  0  0  0  0  0  0
    5.8686   -0.1738   19.9661 C   0  0  0  0  0  0  0  0  0  0  0  0
    6.0316   -0.8096   18.7632 C   0  0  0  0  0  0  0  0  0  0  0  0
    5.2149   -0.6818   17.6833 N   0  0  0  0  0  0  0  0  0  0  0  0
    4.1582    0.0818   17.8268 C   0  0  0  0  0  0  0  0  0  0  0  0
    3.8185    0.7436   19.0402 C   0  0  0  0  0  0  0  0  0  0  0  0
    2.6307    1.5047   19.1727 C   0  0  0  0  0  0  0  0  0  0  0  0
    2.3196    2.1286   20.3514 C   0  0  0  0  0  0  0  0  0  0  0  0
    3.1975    2.0219   21.4508 C   0  0  0  0  0  0  0  0  0  0  0  0
    4.3564    1.2867   21.3502 C   0  0  0  0  0  0  0  0  0  0  0  0
    4.6961    0.6190   20.1434 C   0  0  0  0  0  0  0  0  0  0  0  0
    5.0139    1.2198   22.2113 H   0  0  0  0  0  0  0  0  0  0  0  0
    2.9507    2.5311   22.3761 H   0  0  0  0  0  0  0  0  0  0  0  0
    1.4087    2.7151   20.4394 H   0  0  0  0  0  0  0  0  0  0  0  0
    1.9766    1.6037   18.3160 H   0  0  0  0  0  0  0  0  0  0  0  0
    3.5049    0.2014   16.9597 H   0  0  0  0  0  0  0  0  0  0  0  0
    6.8706   -1.4868   18.6169 H   0  0  0  0  0  0  0  0  0  0  0  0
    7.1501    0.6397   21.4934 H   0  0  0  0  0  0  0  0  0  0  0  0
    7.8047   -0.7545   20.6337 H   0  0  0  0  0  0  0  0  0  0  0  0
    5.0280   -1.8673   24.1809 H   0  0  0  0  0  0  0  0  0  0  0  0
    5.9897   -1.0081   25.3754 H   0  0  0  0  0  0  0  0  0  0  0  0
    6.5793   -3.7223   24.1652 H   0  0  0  0  0  0  0  0  0  0  0  0
    6.0935   -3.4471   25.8285 H   0  0  0  0  0  0  0  0  0  0  0  0
    8.5841   -3.8897   25.3632 H   0  0  0  0  0  0  0  0  0  0  0  0
    9.8924   -1.7553   24.7810 H   0  0  0  0  0  0  0  0  0  0  0  0
    9.1472   -2.6846   23.5100 H   0  0  0  0  0  0  0  0  0  0  0  0
    8.7286   -0.5414   22.8699 H   0  0  0  0  0  0  0  0  0  0  0  0
    9.3886    0.5542   24.9993 H   0  0  0  0  0  0  0  0  0  0  0  0
    7.7774    0.3119   25.6237 H   0  0  0  0  0  0  0  0  0  0  0  0
    8.4850    1.9246   23.1022 H   0  0  0  0  0  0  0  0  0  0  0  0
    6.8467    1.6982   23.7347 H   0  0  0  0  0  0  0  0  0  0  0  0
    8.0423    2.6032   24.6673 H   0  0  0  0  0  0  0  0  0  0  0  0
  1  2  1  0
  2  3  1  0
  3  4  1  0
  4  5  1  0
  5  6  1  0
  6  7  1  0
  6  8  1  0
  6  9  1  0
  5 10  1  0
 10 11  1  0
 11 12  1  0
 12 13  1  0
 13 14  2  0
 13 15  1  0
 15 16  1  0
 16 17  2  0
 17 18  1  0
 18 19  2  0
 19 20  1  0
 20 21  2  0
 21 22  1  0
 22 23  2  0
 23 24  1  0
 24 25  2  0
 24 26  1  0
 23 27  1  0
 22 28  1  0
 21 29  1  0
 19 30  1  0
 17 31  1  0
 15 32  1  0
 15 33  1  0
 11 34  1  0
 11 35  1  0
 10 36  1  0
 10 37  1  0
  5 38  1  1
  4 39  1  0
  4 40  1  0
  3 41  1  6
  2 42  1  0
  2 43  1  0
  1 44  1  0
  1 45  1  0
  1 46  1  0
 12  3  1  0
 25 16  1  0
 25 20  1  0
M  END
>  <cnnaffinities>  (28) 
[5.40479, 5.40481, 5.40478, 5.56655, 5.56717, 5.56751, 5.56801, 5.56853, 5.75755, 5.01037, 5.2823, 5.28469, 5.60881, 5.27811, 5.27801, 5.74967, 5.27783, 5.74946, 5.74938, 5.47751, 5.4775, 5.00827, 5.00819, 5.00811, 5.0081, 5.00774, 5.63352, 5.63343, 5.63344, 5.63343, 5.81974, 5.39533, 5.817]

>  <score>  (28) 
5.40479

>  <index>  (28) 
27

>  <Smiles>  (28) 
C(C([C@]1(C([C@@](C(F)(F)F)(C(C(N1C(=O)C(c1c(nc(c2c(c(c(c(c12)[H])[H])[H])[H])[H])[H])([H])[H])([H])[H])([H])[H])[H])([H])[H])[H])([H])[H])([H])([H])[H]

>  <h>  (28) 
<NA>

>  <Training>  (28) 
True

>  <Success>  (28) 
True

>  <enamine_searched>  (28) 
False

>  <enamine_id>  (28) 
nan

$$$$

     RDKit          3D

 70 75  0  0  0  0  0  0  0  0999 V2000
    6.2428    4.2968   21.8878 C   0  0  0  0  0  0  0  0  0  0  0  0
    7.5744    3.8070   21.4756 N   0  0  0  0  0  4  0  0  0  0  0  0
    8.6819    4.4021   22.2696 C   0  0  0  0  0  0  0  0  0  0  0  0
    8.9482    3.5927   23.5384 C   0  0  0  0  0  0  0  0  0  0  0  0
    9.3951    2.2494   23.2002 N   0  0  0  0  0  0  0  0  0  0  0  0
    8.5861    1.0731   23.4684 C   0  0  0  0  0  0  0  0  0  0  0  0
    8.6958   -0.0152   22.3609 C   0  0  2  0  0  0  0  0  0  0  0  0
    7.9492    0.4248   21.0895 C   0  0  0  0  0  0  0  0  0  0  0  0
    8.2084    1.4258   20.4343 O   0  0  0  0  0  0  0  0  0  0  0  0
    6.8763   -0.3968   20.8596 N   0  0  0  0  0  0  0  0  0  0  0  0
    5.9376   -0.1197   19.8103 C   0  0  0  0  0  0  0  0  0  0  0  0
    6.1612   -0.5979   18.5422 C   0  0  0  0  0  0  0  0  0  0  0  0
    5.3264   -0.4114   17.4876 N   0  0  0  0  0  0  0  0  0  0  0  0
    4.2284    0.2746   17.6990 C   0  0  0  0  0  0  0  0  0  0  0  0
    3.8857    0.8662   18.9475 C   0  0  0  0  0  0  0  0  0  0  0  0
    2.7110    1.6524   19.1048 C   0  0  0  0  0  0  0  0  0  0  0  0
    2.4179    2.2201   20.3127 C   0  0  0  0  0  0  0  0  0  0  0  0
    3.2886    2.0394   21.4104 C   0  0  0  0  0  0  0  0  0  0  0  0
    4.4382    1.2985   21.2742 C   0  0  0  0  0  0  0  0  0  0  0  0
    4.7638    0.6714   20.0404 C   0  0  0  0  0  0  0  0  0  0  0  0
    5.1249    1.2251   22.1113 H   0  0  0  0  0  0  0  0  0  0  0  0
    3.0647    2.5200   22.3583 H   0  0  0  0  0  0  0  0  0  0  0  0
    1.5333    2.8382   20.4307 H   0  0  0  0  0  0  0  0  0  0  0  0
    2.0707    1.8085   18.2403 H   0  0  0  0  0  0  0  0  0  0  0  0
    3.5476    0.3994   16.8578 H   0  0  0  0  0  0  0  0  0  0  0  0
    7.0587   -1.1743   18.3305 H   0  0  0  0  0  0  0  0  0  0  0  0
    6.6080   -1.2964   21.9770 C   0  0  0  0  0  0  0  0  0  0  0  0
    7.9361   -1.3239   22.7594 C   0  0  2  0  0  0  0  0  0  0  0  0
    7.7301   -1.5616   24.2686 C   0  0  0  0  0  0  0  0  0  0  0  0
    8.9463   -1.5334   24.9987 O   0  0  0  0  0  0  0  0  0  0  0  0
    9.7410   -2.6870   24.9016 C   0  0  0  0  0  0  0  0  0  0  0  0
   10.9559   -2.5017   25.7978 C   0  0  0  0  0  0  0  0  0  0  0  0
   10.5692   -2.0226   27.0195 F   0  0  0  0  0  0  0  0  0  0  0  0
   11.9152   -3.6836   25.8027 C   0  0  0  0  0  0  0  0  0  0  0  0
   12.6790   -3.0530   24.7583 O   0  0  0  0  0  0  0  0  0  0  0  0
   12.1246   -1.7786   25.1269 C   0  0  0  0  0  0  0  0  0  0  0  0
   12.7719   -1.2627   25.8497 H   0  0  0  0  0  0  0  0  0  0  0  0
   11.9048   -1.1480   24.2593 H   0  0  0  0  0  0  0  0  0  0  0  0
   12.4827   -3.7166   26.7444 H   0  0  0  0  0  0  0  0  0  0  0  0
   11.5494   -4.6740   25.5120 H   0  0  0  0  0  0  0  0  0  0  0  0
    9.1812   -3.5830   25.2157 H   0  0  0  0  0  0  0  0  0  0  0  0
   10.0725   -2.8462   23.8642 H   0  0  0  0  0  0  0  0  0  0  0  0
    7.1912   -2.5106   24.4461 H   0  0  0  0  0  0  0  0  0  0  0  0
    7.0985   -0.7630   24.6840 H   0  0  0  0  0  0  0  0  0  0  0  0
    8.5214   -2.1686   22.3862 H   0  0  0  0  0  0  0  0  0  0  0  0
    6.3176   -2.2919   21.6191 H   0  0  0  0  0  0  0  0  0  0  0  0
    5.7865   -0.9112   22.6007 H   0  0  0  0  0  0  0  0  0  0  0  0
   10.1751   -0.2057   22.0416 C   0  0  0  0  0  0  0  0  0  0  0  0
   10.6249   -1.3117   21.2995 C   0  0  0  0  0  0  0  0  0  0  0  0
   11.9800   -1.4530   21.0222 C   0  0  0  0  0  0  0  0  0  0  0  0
   12.5707   -2.6848   19.9417 Cl  0  0  0  0  0  0  0  0  0  0  0  0
   12.9289   -0.5525   21.5110 C   0  0  0  0  0  0  0  0  0  0  0  0
   12.4848    0.5609   22.1877 C   0  0  0  0  0  0  0  0  0  0  0  0
   11.1213    0.7725   22.3785 C   0  0  0  0  0  0  0  0  0  0  0  0
   10.7122    2.1216   22.8694 C   0  0  0  0  0  0  0  0  0  0  0  0
   11.5095    3.0529   22.9316 O   0  0  0  0  0  0  0  0  0  0  0  0
   13.1797    1.3063   22.5583 H   0  0  0  0  0  0  0  0  0  0  0  0
   13.9839   -0.7127   21.3126 H   0  0  0  0  0  0  0  0  0  0  0  0
    9.9266   -2.0288   20.8778 H   0  0  0  0  0  0  0  0  0  0  0  0
    7.5411    1.3772   23.5948 H   0  0  0  0  0  0  0  0  0  0  0  0
    8.9328    0.6273   24.4040 H   0  0  0  0  0  0  0  0  0  0  0  0
    8.0492    3.5426   24.1666 H   0  0  0  0  0  0  0  0  0  0  0  0
    9.7478    4.0695   24.1028 H   0  0  0  0  0  0  0  0  0  0  0  0
    8.4459    5.4424   22.5107 H   0  0  0  0  0  0  0  0  0  0  0  0
    9.5894    4.4254   21.6622 H   0  0  0  0  0  0  0  0  0  0  0  0
    7.7457    4.0079   20.4768 H   0  0  0  0  0  0  0  0  0  0  0  0
    7.6515    2.7823   21.5415 H   0  0  0  0  0  0  0  0  0  0  0  0
    5.4687    3.7845   21.3209 H   0  0  0  0  0  0  0  0  0  0  0  0
    6.0611    4.1295   22.9574 H   0  0  0  0  0  0  0  0  0  0  0  0
    6.1404    5.3702   21.6922 H   0  0  0  0  0  0  0  0  0  0  0  0
  1  2  1  0
  2  3  1  0
  3  4  1  0
  4  5  1  0
  5  6  1  0
  7  6  1  1
  7  8  1  0
  8  9  2  0
  8 10  1  0
 10 11  1  0
 11 12  2  0
 12 13  1  0
 13 14  2  0
 14 15  1  0
 15 16  2  0
 16 17  1  0
 17 18  2  0
 18 19  1  0
 19 20  2  0
 19 21  1  0
 18 22  1  0
 17 23  1  0
 16 24  1  0
 14 25  1  0
 12 26  1  0
 10 27  1  0
 27 28  1  0
 28 29  1  0
 29 30  1  0
 30 31  1  0
 31 32  1  0
 32 33  1  0
 32 34  1  0
 34 35  1  0
 35 36  1  0
 36 37  1  0
 36 38  1  0
 34 39  1  0
 34 40  1  0
 31 41  1  0
 31 42  1  0
 29 43  1  0
 29 44  1  0
 28 45  1  6
 27 46  1  0
 27 47  1  0
  7 48  1  0
 48 49  2  0
 49 50  1  0
 50 51  1  0
 50 52  2  0
 52 53  1  0
 53 54  2  0
 54 55  1  0
 55 56  2  0
 53 57  1  0
 52 58  1  0
 49 59  1  0
  6 60  1  0
  6 61  1  0
  4 62  1  0
  4 63  1  0
  3 64  1  0
  3 65  1  0
  2 66  1  0
  2 67  1  0
  1 68  1  0
  1 69  1  0
  1 70  1  0
 55  5  1  0
 28  7  1  0
 36 32  1  0
 54 48  1  0
 20 11  1  0
 20 15  1  0
M  CHG  1   2   1
M  END
>  <cnnaffinities>  (29) 
[6.48002, 6.44877]

>  <score>  (29) 
6.48002

>  <index>  (29) 
28

>  <Smiles>  (29) 
C([N+](C(C(N1C([C@@]2(C(=O)N(c3c(nc(c4c(c(c(c(c34)[H])[H])[H])[H])[H])[H])C([C@@]2(C(OC(C2(F)C(OC2([H])[H])([H])[H])([H])[H])([H])[H])[H])([H])[H])c2c(c(Cl)c(c(c2C1=O)[H])[H])[H])([H])[H])([H])[H])([H])[H])([H])[H])([H])([H])[H]

>  <h>  (29) 
<NA>

>  <Training>  (29) 
True

>  <Success>  (29) 
True

>  <enamine_searched>  (29) 
False

>  <enamine_id>  (29) 
nan

$$$$

     RDKit          3D

 67 72  0  0  0  0  0  0  0  0999 V2000
    6.2413    3.9822   21.8548 C   0  0  0  0  0  0  0  0  0  0  0  0
    7.6857    4.1857   21.6296 N   0  0  0  0  0  4  0  0  0  0  0  0
    8.4043    4.6765   22.8361 C   0  0  0  0  0  0  0  0  0  0  0  0
    8.5770    3.5695   23.8619 C   0  0  0  0  0  0  0  0  0  0  0  0
    9.1460    2.3791   23.2675 N   0  0  0  0  0  0  0  0  0  0  0  0
    8.4515    1.1407   23.5086 C   0  0  0  0  0  0  0  0  0  0  0  0
    8.7178    0.1191   22.3881 C   0  0  2  0  0  0  0  0  0  0  0  0
    7.8827    0.6028   21.1884 C   0  0  0  0  0  0  0  0  0  0  0  0
    8.0217    1.6691   20.6060 O   0  0  0  0  0  0  0  0  0  0  0  0
    6.8823   -0.3092   20.9579 N   0  0  0  0  0  0  0  0  0  0  0  0
    5.9250   -0.1313   19.9267 C   0  0  0  0  0  0  0  0  0  0  0  0
    6.1382   -0.7258   18.7115 C   0  0  0  0  0  0  0  0  0  0  0  0
    5.3049   -0.6039   17.6522 N   0  0  0  0  0  0  0  0  0  0  0  0
    4.2272    0.1257   17.8153 C   0  0  0  0  0  0  0  0  0  0  0  0
    3.8767    0.7809   19.0316 C   0  0  0  0  0  0  0  0  0  0  0  0
    2.7101    1.5853   19.1550 C   0  0  0  0  0  0  0  0  0  0  0  0
    2.3948    2.1803   20.3454 C   0  0  0  0  0  0  0  0  0  0  0  0
    3.2334    2.0132   21.4698 C   0  0  0  0  0  0  0  0  0  0  0  0
    4.3746    1.2508   21.3704 C   0  0  0  0  0  0  0  0  0  0  0  0
    4.7371    0.6295   20.1413 C   0  0  0  0  0  0  0  0  0  0  0  0
    5.0212    1.1418   22.2382 H   0  0  0  0  0  0  0  0  0  0  0  0
    2.9839    2.5037   22.4063 H   0  0  0  0  0  0  0  0  0  0  0  0
    1.5005    2.7924   20.4321 H   0  0  0  0  0  0  0  0  0  0  0  0
    2.0887    1.7287   18.2771 H   0  0  0  0  0  0  0  0  0  0  0  0
    3.5575    0.2190   16.9603 H   0  0  0  0  0  0  0  0  0  0  0  0
    7.0276   -1.3333   18.5563 H   0  0  0  0  0  0  0  0  0  0  0  0
    6.6917   -1.2328   22.0582 C   0  0  0  0  0  0  0  0  0  0  0  0
    8.0704   -1.2538   22.7172 C   0  0  2  0  0  0  0  0  0  0  0  0
    8.0165   -1.6153   24.2068 C   0  0  0  0  0  0  0  0  0  0  0  0
    7.5751   -2.9704   24.4623 N   0  0  0  0  0  0  0  0  0  0  0  0
    6.3052   -3.3341   24.7156 C   0  0  0  0  0  0  0  0  0  0  0  0
    6.0517   -4.6622   24.7581 N   0  0  0  0  0  0  0  0  0  0  0  0
    4.7908   -4.9563   25.0240 C   0  0  0  0  0  0  0  0  0  0  0  0
    3.7931   -4.0974   25.2531 N   0  0  0  0  0  0  0  0  0  0  0  0
    4.1710   -2.8238   25.1855 C   0  0  0  0  0  0  0  0  0  0  0  0
    5.3886   -2.3678   24.9166 N   0  0  0  0  0  0  0  0  0  0  0  0
    3.3964   -2.0816   25.3685 H   0  0  0  0  0  0  0  0  0  0  0  0
    4.5387   -6.0156   25.0638 H   0  0  0  0  0  0  0  0  0  0  0  0
    8.2068   -3.7347   24.2973 H   0  0  0  0  0  0  0  0  0  0  0  0
    7.3234   -0.9529   24.7298 H   0  0  0  0  0  0  0  0  0  0  0  0
    9.0122   -1.4972   24.6463 H   0  0  0  0  0  0  0  0  0  0  0  0
    8.6566   -2.0238   22.2157 H   0  0  0  0  0  0  0  0  0  0  0  0
    6.3697   -2.2173   21.7023 H   0  0  0  0  0  0  0  0  0  0  0  0
    5.9300   -0.8720   22.7684 H   0  0  0  0  0  0  0  0  0  0  0  0
   10.2102    0.0623   22.0933 C   0  0  0  0  0  0  0  0  0  0  0  0
   10.7905   -1.0415   21.4493 C   0  0  0  0  0  0  0  0  0  0  0  0
   12.1581   -1.0876   21.2489 C   0  0  0  0  0  0  0  0  0  0  0  0
   12.8444   -2.3756   20.3048 Cl  0  0  0  0  0  0  0  0  0  0  0  0
   12.9967   -0.0630   21.6839 C   0  0  0  0  0  0  0  0  0  0  0  0
   12.4293    1.0603   22.2459 C   0  0  0  0  0  0  0  0  0  0  0  0
   11.0465    1.1363   22.4268 C   0  0  0  0  0  0  0  0  0  0  0  0
   10.4839    2.4127   22.9669 C   0  0  0  0  0  0  0  0  0  0  0  0
   11.1637    3.4178   23.1223 O   0  0  0  0  0  0  0  0  0  0  0  0
   13.0407    1.9052   22.5434 H   0  0  0  0  0  0  0  0  0  0  0  0
   14.0655   -0.1398   21.5284 H   0  0  0  0  0  0  0  0  0  0  0  0
   10.1877   -1.8556   21.0590 H   0  0  0  0  0  0  0  0  0  0  0  0
    7.3726    1.3457   23.5118 H   0  0  0  0  0  0  0  0  0  0  0  0
    8.7377    0.7358   24.4867 H   0  0  0  0  0  0  0  0  0  0  0  0
    7.6288    3.3023   24.3436 H   0  0  0  0  0  0  0  0  0  0  0  0
    9.2613    3.9092   24.6204 H   0  0  0  0  0  0  0  0  0  0  0  0
    7.8645    5.5146   23.2906 H   0  0  0  0  0  0  0  0  0  0  0  0
    9.3890    5.0342   22.5323 H   0  0  0  0  0  0  0  0  0  0  0  0
    7.8459    4.8837   20.8799 H   0  0  0  0  0  0  0  0  0  0  0  0
    8.1235    3.3029   21.3024 H   0  0  0  0  0  0  0  0  0  0  0  0
    6.0714    3.1194   22.5061 H   0  0  0  0  0  0  0  0  0  0  0  0
    5.7765    4.8395   22.3546 H   0  0  0  0  0  0  0  0  0  0  0  0
    5.7317    3.7839   20.9078 H   0  0  0  0  0  0  0  0  0  0  0  0
  1  2  1  0
  2  3  1  0
  3  4  1  0
  4  5  1  0
  5  6  1  0
  7  6  1  1
  7  8  1  0
  8  9  2  0
  8 10  1  0
 10 11  1  0
 11 12  2  0
 12 13  1  0
 13 14  2  0
 14 15  1  0
 15 16  2  0
 16 17  1  0
 17 18  2  0
 18 19  1  0
 19 20  2  0
 19 21  1  0
 18 22  1  0
 17 23  1  0
 16 24  1  0
 14 25  1  0
 12 26  1  0
 10 27  1  0
 27 28  1  0
 28 29  1  0
 29 30  1  0
 30 31  1  0
 31 32  2  0
 32 33  1  0
 33 34  2  0
 34 35  1  0
 35 36  2  0
 35 37  1  0
 33 38  1  0
 30 39  1  0
 29 40  1  0
 29 41  1  0
 28 42  1  6
 27 43  1  0
 27 44  1  0
  7 45  1  0
 45 46  2  0
 46 47  1  0
 47 48  1  0
 47 49  2  0
 49 50  1  0
 50 51  2  0
 51 52  1  0
 52 53  2  0
 50 54  1  0
 49 55  1  0
 46 56  1  0
  6 57  1  0
  6 58  1  0
  4 59  1  0
  4 60  1  0
  3 61  1  0
  3 62  1  0
  2 63  1  0
  2 64  1  0
  1 65  1  0
  1 66  1  0
  1 67  1  0
 52  5  1  0
 28  7  1  0
 36 31  1  0
 51 45  1  0
 20 11  1  0
 20 15  1  0
M  CHG  1   2   1
M  END
>  <cnnaffinities>  (30) 
[6.72514]

>  <score>  (30) 
6.72514

>  <index>  (30) 
29

>  <Smiles>  (30) 
C([N+](C(C(N1C([C@@]2(C(=O)N(c3c(nc(c4c(c(c(c(c34)[H])[H])[H])[H])[H])[H])C([C@@]2(C(N(c2nc(nc(n2)[H])[H])[H])([H])[H])[H])([H])[H])c2c(c(Cl)c(c(c2C1=O)[H])[H])[H])([H])[H])([H])[H])([H])[H])([H])[H])([H])([H])[H]

>  <h>  (30) 
<NA>

>  <Training>  (30) 
True

>  <Success>  (30) 
True

>  <enamine_searched>  (30) 
False

>  <enamine_id>  (30) 
nan

$$$$

     RDKit          3D

 66 71  0  0  0  0  0  0  0  0999 V2000
    7.3731    5.5304   27.0743 C   0  0  0  0  0  0  0  0  0  0  0  0
    7.6094    5.1406   25.6954 N   0  0  0  0  0  0  0  0  0  0  0  0
    7.0177    4.0228   25.2198 C   0  0  0  0  0  0  0  0  0  0  0  0
    6.2422    3.3521   25.8885 O   0  0  0  0  0  0  0  0  0  0  0  0
    7.3254    3.6670   23.7593 C   0  0  0  0  0  0  0  0  0  0  0  0
    8.2844    2.6011   23.5968 N   0  0  0  0  0  0  0  0  0  0  0  0
    7.8713    1.2268   23.7806 C   0  0  0  0  0  0  0  0  0  0  0  0
    8.4191    0.3250   22.6450 C   0  0  2  0  0  0  0  0  0  0  0  0
    7.7155    0.6885   21.3149 C   0  0  0  0  0  0  0  0  0  0  0  0
    7.8639    1.6906   20.6524 O   0  0  0  0  0  0  0  0  0  0  0  0
    6.8467   -0.3279   20.9876 N   0  0  0  0  0  0  0  0  0  0  0  0
    5.8891   -0.1621   19.9582 C   0  0  0  0  0  0  0  0  0  0  0  0
    6.0594   -0.8116   18.7650 C   0  0  0  0  0  0  0  0  0  0  0  0
    5.2383   -0.6741   17.6967 N   0  0  0  0  0  0  0  0  0  0  0  0
    4.1838    0.0920   17.8428 C   0  0  0  0  0  0  0  0  0  0  0  0
    3.8360    0.7583   19.0533 C   0  0  0  0  0  0  0  0  0  0  0  0
    2.6507    1.5336   19.1806 C   0  0  0  0  0  0  0  0  0  0  0  0
    2.3397    2.1490   20.3595 C   0  0  0  0  0  0  0  0  0  0  0  0
    3.2117    2.0357   21.4645 C   0  0  0  0  0  0  0  0  0  0  0  0
    4.3687    1.3020   21.3654 C   0  0  0  0  0  0  0  0  0  0  0  0
    4.7146    0.6386   20.1505 C   0  0  0  0  0  0  0  0  0  0  0  0
    5.0376    1.2261   22.2197 H   0  0  0  0  0  0  0  0  0  0  0  0
    2.9752    2.5500   22.3902 H   0  0  0  0  0  0  0  0  0  0  0  0
    1.4294    2.7340   20.4479 H   0  0  0  0  0  0  0  0  0  0  0  0
    2.0080    1.6422   18.3166 H   0  0  0  0  0  0  0  0  0  0  0  0
    3.5261    0.1849   16.9809 H   0  0  0  0  0  0  0  0  0  0  0  0
    6.9081   -1.4768   18.6182 H   0  0  0  0  0  0  0  0  0  0  0  0
    6.7644   -1.3816   21.9734 C   0  0  0  0  0  0  0  0  0  0  0  0
    8.0248   -1.1744   22.8336 C   0  0  2  0  0  0  0  0  0  0  0  0
    7.8356   -1.6796   24.2797 C   0  0  0  0  0  0  0  0  0  0  0  0
    7.5943   -3.1745   24.3448 C   0  0  0  0  0  0  0  0  0  0  0  0
    8.6720   -4.0619   24.2818 C   0  0  0  0  0  0  0  0  0  0  0  0
    8.4702   -5.4389   24.3083 C   0  0  0  0  0  0  0  0  0  0  0  0
    7.1806   -5.9567   24.3870 C   0  0  0  0  0  0  0  0  0  0  0  0
    6.0953   -5.0865   24.4476 C   0  0  0  0  0  0  0  0  0  0  0  0
    6.3034   -3.7078   24.4260 C   0  0  0  0  0  0  0  0  0  0  0  0
    5.4477   -3.0333   24.4682 H   0  0  0  0  0  0  0  0  0  0  0  0
    5.0834   -5.4826   24.5137 H   0  0  0  0  0  0  0  0  0  0  0  0
    7.0278   -7.0334   24.4059 H   0  0  0  0  0  0  0  0  0  0  0  0
    9.3233   -6.1113   24.2766 H   0  0  0  0  0  0  0  0  0  0  0  0
    9.6830   -3.6606   24.2086 H   0  0  0  0  0  0  0  0  0  0  0  0
    8.7263   -1.4276   24.8723 H   0  0  0  0  0  0  0  0  0  0  0  0
    6.9852   -1.1573   24.7383 H   0  0  0  0  0  0  0  0  0  0  0  0
    8.8354   -1.7601   22.3921 H   0  0  0  0  0  0  0  0  0  0  0  0
    6.7331   -2.3614   21.4853 H   0  0  0  0  0  0  0  0  0  0  0  0
    5.8464   -1.3015   22.5804 H   0  0  0  0  0  0  0  0  0  0  0  0
    9.9076    0.6051   22.5245 C   0  0  0  0  0  0  0  0  0  0  0  0
   10.7338   -0.2986   21.8492 C   0  0  0  0  0  0  0  0  0  0  0  0
   12.0903   -0.0574   21.7565 C   0  0  0  0  0  0  0  0  0  0  0  0
   13.0835   -1.2559   20.9785 Cl  0  0  0  0  0  0  0  0  0  0  0  0
   12.6620    1.1134   22.2534 C   0  0  0  0  0  0  0  0  0  0  0  0
   11.8388    2.0474   22.8553 C   0  0  0  0  0  0  0  0  0  0  0  0
   10.4699    1.8145   22.9659 C   0  0  0  0  0  0  0  0  0  0  0  0
    9.6003    2.9262   23.4688 C   0  0  0  0  0  0  0  0  0  0  0  0
   10.0149    4.0586   23.7037 O   0  0  0  0  0  0  0  0  0  0  0  0
   12.2141    2.9910   23.2393 H   0  0  0  0  0  0  0  0  0  0  0  0
   13.7220    1.3013   22.1326 H   0  0  0  0  0  0  0  0  0  0  0  0
   10.3400   -1.1771   21.3479 H   0  0  0  0  0  0  0  0  0  0  0  0
    6.7754    1.2080   23.7972 H   0  0  0  0  0  0  0  0  0  0  0  0
    8.2463    0.8598   24.7483 H   0  0  0  0  0  0  0  0  0  0  0  0
    7.6906    4.5275   23.1906 H   0  0  0  0  0  0  0  0  0  0  0  0
    6.3790    3.3316   23.3227 H   0  0  0  0  0  0  0  0  0  0  0  0
    8.3501    5.5512   25.1410 H   0  0  0  0  0  0  0  0  0  0  0  0
    8.0568    6.3460   27.3165 H   0  0  0  0  0  0  0  0  0  0  0  0
    7.5286    4.6839   27.7547 H   0  0  0  0  0  0  0  0  0  0  0  0
    6.3344    5.8547   27.2240 H   0  0  0  0  0  0  0  0  0  0  0  0
  1  2  1  0
  2  3  1  0
  3  4  2  0
  3  5  1  0
  5  6  1  0
  6  7  1  0
  8  7  1  1
  8  9  1  0
  9 10  2  0
  9 11  1  0
 11 12  1  0
 12 13  2  0
 13 14  1  0
 14 15  2  0
 15 16  1  0
 16 17  2  0
 17 18  1  0
 18 19  2  0
 19 20  1  0
 20 21  2  0
 20 22  1  0
 19 23  1  0
 18 24  1  0
 17 25  1  0
 15 26  1  0
 13 27  1  0
 11 28  1  0
 28 29  1  0
 29 30  1  0
 30 31  1  0
 31 32  2  0
 32 33  1  0
 33 34  2  0
 34 35  1  0
 35 36  2  0
 36 37  1  0
 35 38  1  0
 34 39  1  0
 33 40  1  0
 32 41  1  0
 30 42  1  0
 30 43  1  0
 29 44  1  6
 28 45  1  0
 28 46  1  0
  8 47  1  0
 47 48  2  0
 48 49  1  0
 49 50  1  0
 49 51  2  0
 51 52  1  0
 52 53  2  0
 53 54  1  0
 54 55  2  0
 52 56  1  0
 51 57  1  0
 48 58  1  0
  7 59  1  0
  7 60  1  0
  5 61  1  0
  5 62  1  0
  2 63  1  0
  1 64  1  0
  1 65  1  0
  1 66  1  0
 54  6  1  0
 29  8  1  0
 36 31  1  0
 53 47  1  0
 21 12  1  0
 21 16  1  0
M  END
>  <cnnaffinities>  (31) 
[6.38924, 6.53577, 6.53361]

>  <score>  (31) 
6.38924

>  <index>  (31) 
30

>  <Smiles>  (31) 
C(N(C(=O)C(N1C([C@@]2(C(=O)N(c3c(nc(c4c(c(c(c(c34)[H])[H])[H])[H])[H])[H])C([C@@]2(C(c2c(c(c(c(c2[H])[H])[H])[H])[H])([H])[H])[H])([H])[H])c2c(c(Cl)c(c(c2C1=O)[H])[H])[H])([H])[H])([H])[H])[H])([H])([H])[H]

>  <h>  (31) 
<NA>

>  <Training>  (31) 
True

>  <Success>  (31) 
True

>  <enamine_searched>  (31) 
False

>  <enamine_id>  (31) 
nan

$$$$

     RDKit          3D

 64 70  0  0  0  0  0  0  0  0999 V2000
    8.1513   -3.4702   26.6313 O   0  0  0  0  0  0  0  0  0  0  0  0
    7.8227   -2.8053   25.6594 C   0  0  0  0  0  0  0  0  0  0  0  0
    7.0533   -1.5255   25.7868 C   0  0  0  0  0  0  0  0  0  0  0  0
    6.7661   -1.0550   27.0663 C   0  0  0  0  0  0  0  0  0  0  0  0
    6.2109    0.1966   27.2537 C   0  0  0  0  0  0  0  0  0  0  0  0
    5.9533    0.9876   26.1353 C   0  0  0  0  0  0  0  0  0  0  0  0
    5.3218    2.5924   26.3544 Cl  0  0  0  0  0  0  0  0  0  0  0  0
    6.2264    0.5350   24.8588 C   0  0  0  0  0  0  0  0  0  0  0  0
    6.7557   -0.7470   24.6652 C   0  0  0  0  0  0  0  0  0  0  0  0
    7.1217   -1.1698   23.2641 C   0  0  1  0  0  0  0  0  0  0  0  0
    7.4344   -2.6909   23.2270 C   0  0  0  0  0  0  0  0  0  0  0  0
    8.2061   -3.1267   24.3808 N   0  0  0  0  0  0  0  0  0  0  0  0
    9.1659   -4.1999   24.2321 C   0  0  0  0  0  0  0  0  0  0  0  0
    8.5092   -5.5371   24.0929 C   0  0  0  0  0  0  0  0  0  0  0  0
    7.3555   -5.8294   23.6025 N   0  0  0  0  0  0  0  0  0  0  0  0
    7.2497   -7.2195   23.6535 N   0  0  0  0  0  0  0  0  0  0  0  0
    8.3527   -7.6364   24.1718 C   0  0  0  0  0  0  0  0  0  0  0  0
    9.2137   -6.6333   24.4664 O   0  0  0  0  0  0  0  0  0  0  0  0
    8.6570   -8.6452   24.3834 H   0  0  0  0  0  0  0  0  0  0  0  0
    9.8126   -4.0039   23.3608 H   0  0  0  0  0  0  0  0  0  0  0  0
    9.8002   -4.2022   25.1201 H   0  0  0  0  0  0  0  0  0  0  0  0
    8.0105   -2.9283   22.3245 H   0  0  0  0  0  0  0  0  0  0  0  0
    6.4926   -3.2543   23.1633 H   0  0  0  0  0  0  0  0  0  0  0  0
    6.0088   -0.9167   22.2348 C   0  0  0  0  0  0  0  0  0  0  0  0
    4.8394   -1.2223   22.3523 O   0  0  0  0  0  0  0  0  0  0  0  0
    6.5672   -0.3154   21.1183 N   0  0  0  0  0  0  0  0  0  0  0  0
    5.8189    0.0144   19.9730 C   0  0  0  0  0  0  0  0  0  0  0  0
    6.2216   -0.4341   18.7401 C   0  0  0  0  0  0  0  0  0  0  0  0
    5.5474   -0.2312   17.5842 N   0  0  0  0  0  0  0  0  0  0  0  0
    4.4321    0.4575   17.6512 C   0  0  0  0  0  0  0  0  0  0  0  0
    3.9310    1.0358   18.8502 C   0  0  0  0  0  0  0  0  0  0  0  0
    2.7407    1.8150   18.8556 C   0  0  0  0  0  0  0  0  0  0  0  0
    2.3017    2.4071   20.0086 C   0  0  0  0  0  0  0  0  0  0  0  0
    3.0381    2.2539   21.2056 C   0  0  0  0  0  0  0  0  0  0  0  0
    4.1898    1.5077   21.2247 C   0  0  0  0  0  0  0  0  0  0  0  0
    4.6509    0.8446   20.0492 C   0  0  0  0  0  0  0  0  0  0  0  0
    4.7467    1.4202   22.1519 H   0  0  0  0  0  0  0  0  0  0  0  0
    2.6860    2.7309   22.1174 H   0  0  0  0  0  0  0  0  0  0  0  0
    1.3958    3.0104   20.0113 H   0  0  0  0  0  0  0  0  0  0  0  0
    2.1999    1.9504   17.9221 H   0  0  0  0  0  0  0  0  0  0  0  0
    3.8740    0.5976   16.7242 H   0  0  0  0  0  0  0  0  0  0  0  0
    7.1304   -1.0253   18.6530 H   0  0  0  0  0  0  0  0  0  0  0  0
    8.0294   -0.2879   21.1891 C   0  0  0  0  0  0  0  0  0  0  0  0
    8.2626   -0.2598   22.7010 C   0  0  2  0  0  0  0  0  0  0  0  0
    9.6534   -0.6467   23.1915 C   0  0  0  0  0  0  0  0  0  0  0  0
   10.6937    0.3243   22.8719 N   0  0  0  0  0  0  0  0  0  0  0  0
   12.0185   -0.0876   22.5797 C   0  0  0  0  0  0  0  0  0  0  0  0
   13.0786    0.7986   22.6498 C   0  0  0  0  0  0  0  0  0  0  0  0
   13.0962    1.0152   22.3571 C   0  0  0  0  0  0  0  0  0  0  0  0
   14.2755   -1.2912   21.5536 N   0  0  0  0  0  0  0  0  0  0  0  0
   13.2947   -1.9035   21.9819 C   0  0  0  0  0  0  0  0  0  0  0  0
   12.0218   -1.3828   22.3947 N   0  0  0  0  0  0  0  0  0  0  0  0
   13.3405   -3.0026   22.0734 H   0  0  0  0  0  0  0  0  0  0  0  0
   13.3300    1.3991   21.2967 H   0  0  0  0  0  0  0  0  0  0  0  0
   13.4801    1.7824   23.1852 H   0  0  0  0  0  0  0  0  0  0  0  0
   10.5083    1.2203   23.3321 H   0  0  0  0  0  0  0  0  0  0  0  0
    9.9149   -1.6154   22.7609 H   0  0  0  0  0  0  0  0  0  0  0  0
    9.6018   -0.8041   24.2805 H   0  0  0  0  0  0  0  0  0  0  0  0
    8.0544    0.7601   23.0529 H   0  0  0  0  0  0  0  0  0  0  0  0
    8.4138    0.5857   20.6630 H   0  0  0  0  0  0  0  0  0  0  0  0
    8.4799   -1.1946   20.7518 H   0  0  0  0  0  0  0  0  0  0  0  0
    6.0537    1.1908   24.0101 H   0  0  0  0  0  0  0  0  0  0  0  0
    6.0000    0.5718   28.2481 H   0  0  0  0  0  0  0  0  0  0  0  0
    7.0279   -1.6936   27.9035 H   0  0  0  0  0  0  0  0  0  0  0  0
  1  2  2  0
  2  3  1  0
  3  4  2  0
  4  5  1  0
  5  6  2  0
  6  7  1  0
  6  8  1  0
  8  9  2  0
  9 10  1  0
 10 11  1  1
 11 12  1  0
 12 13  1  0
 13 14  1  0
 14 15  2  0
 15 16  1  0
 16 17  2  0
 17 18  1  0
 17 19  1  0
 13 20  1  0
 13 21  1  0
 11 22  1  0
 11 23  1  0
 10 24  1  0
 24 25  2  0
 24 26  1  0
 26 27  1  0
 27 28  2  0
 28 29  1  0
 29 30  2  0
 30 31  1  0
 31 32  2  0
 32 33  1  0
 33 34  2  0
 34 35  1  0
 35 36  2  0
 35 37  1  0
 34 38  1  0
 33 39  1  0
 32 40  1  0
 30 41  1  0
 28 42  1  0
 26 43  1  0
 43 44  1  0
 44 45  1  0
 45 46  1  0
 46 47  1  0
 47 48  2  0
 48 49  1  0
 49 50  2  0
 50 51  1  0
 51 52  2  0
 51 53  1  0
 49 54  1  0
 48 55  1  0
 46 56  1  0
 45 57  1  0
 45 58  1  0
 44 59  1  1
 43 60  1  0
 43 61  1  0
  8 62  1  0
  5 63  1  0
  4 64  1  0
 12  2  1  0
 18 14  1  0
 36 27  1  0
 52 47  1  0
  9  3  1  0
 44 10  1  0
 36 31  1  0
M  END
>  <cnnaffinities>  (32) 
[7.19048]

>  <score>  (32) 
7.19048

>  <index>  (32) 
31

>  <Smiles>  (32) 
O=C1c2c(c(c(Cl)c(c2[C@@]2(C(N1C(c1nnc(o1)[H])([H])[H])([H])[H])C(=O)N(c1c(nc(c3c(c(c(c(c13)[H])[H])[H])[H])[H])[H])C([C@@]2(C(N(c1c(c(nc(n1)[H])[H])[H])[H])([H])[H])[H])([H])[H])[H])[H])[H]

>  <h>  (32) 
<NA>

>  <Training>  (32) 
True

>  <Success>  (32) 
True

>  <enamine_searched>  (32) 
False

>  <enamine_id>  (32) 
nan

$$$$

     RDKit          3D

 72 77  0  0  0  0  0  0  0  0999 V2000
    8.1493   -1.9003   24.0181 C   0  0  0  0  0  0  0  0  0  0  0  0
    8.2064   -1.1907   22.6672 C   0  0  1  0  0  0  0  0  0  0  0  0
    6.9705   -1.4829   21.8038 C   0  0  0  0  0  0  0  0  0  0  0  0
    6.8468   -0.3054   20.9775 N   0  0  0  0  0  0  0  0  0  0  0  0
    5.8834   -0.1675   19.9580 C   0  0  0  0  0  0  0  0  0  0  0  0
    6.0661   -0.8100   18.7620 C   0  0  0  0  0  0  0  0  0  0  0  0
    5.2545   -0.6665   17.6877 N   0  0  0  0  0  0  0  0  0  0  0  0
    4.1984    0.0991   17.8390 C   0  0  0  0  0  0  0  0  0  0  0  0
    3.8573    0.7670   19.0504 C   0  0  0  0  0  0  0  0  0  0  0  0
    2.6730    1.5394   19.1780 C   0  0  0  0  0  0  0  0  0  0  0  0
    2.3477    2.1329   20.3657 C   0  0  0  0  0  0  0  0  0  0  0  0
    3.2078    2.0158   21.4813 C   0  0  0  0  0  0  0  0  0  0  0  0
    4.3651    1.2832   21.3849 C   0  0  0  0  0  0  0  0  0  0  0  0
    4.7221    0.6386   20.1603 C   0  0  0  0  0  0  0  0  0  0  0  0
    5.0102    1.1936   22.2554 H   0  0  0  0  0  0  0  0  0  0  0  0
    2.9511    2.5095   22.4168 H   0  0  0  0  0  0  0  0  0  0  0  0
    1.4217    2.6976   20.4521 H   0  0  0  0  0  0  0  0  0  0  0  0
    2.0413    1.6623   18.3051 H   0  0  0  0  0  0  0  0  0  0  0  0
    3.5251    0.2025   16.9860 H   0  0  0  0  0  0  0  0  0  0  0  0
    6.9334   -1.4579   18.6297 H   0  0  0  0  0  0  0  0  0  0  0  0
    7.5977    0.7642   21.3937 C   0  0  0  0  0  0  0  0  0  0  0  0
    7.6308    1.8377   20.8284 O   0  0  0  0  0  0  0  0  0  0  0  0
    8.3464    0.3620   22.6780 C   0  0  1  0  0  0  0  0  0  0  0  0
    7.6686    0.9927   23.9187 C   0  0  0  0  0  0  0  0  0  0  0  0
    7.8431    2.4289   23.9906 N   0  0  0  0  0  0  0  0  0  0  0  0
    6.7253    3.3067   24.2898 C   0  0  0  0  0  0  0  0  0  0  0  0
    6.3227    4.1211   23.0553 C   0  0  0  0  0  0  0  0  0  0  0  0
    5.1739    5.0329   23.3088 N   0  0  1  0  0  4  0  0  0  0  0  0
    5.4807    6.0918   24.3593 C   0  0  0  0  0  0  0  0  0  0  0  0
    4.6140    7.3326   24.1279 C   0  0  0  0  0  0  0  0  0  0  0  0
    3.3499    6.9629   23.6306 O   0  0  0  0  0  0  0  0  0  0  0  0
    3.3869    6.4704   22.2826 C   0  0  0  0  0  0  0  0  0  0  0  0
    2.1459    5.5967   22.1538 C   0  0  0  0  0  0  0  0  0  0  0  0
    2.1625    4.7950   22.9002 H   0  0  0  0  0  0  0  0  0  0  0  0
    2.0811    5.1515   21.1542 H   0  0  0  0  0  0  0  0  0  0  0  0
    1.2517    6.2002   22.3274 H   0  0  0  0  0  0  0  0  0  0  0  0
    3.3172    7.6340   21.2950 C   0  0  0  0  0  0  0  0  0  0  0  0
    2.4169    8.2279   21.4743 H   0  0  0  0  0  0  0  0  0  0  0  0
    3.2883    7.2489   20.2692 H   0  0  0  0  0  0  0  0  0  0  0  0
    4.1868    8.2937   21.3827 H   0  0  0  0  0  0  0  0  0  0  0  0
    4.6713    5.6564   22.0412 C   0  0  0  0  0  0  0  0  0  0  0  0
    5.4654    6.2933   21.6339 H   0  0  0  0  0  0  0  0  0  0  0  0
    4.4918    4.8663   21.3038 H   0  0  0  0  0  0  0  0  0  0  0  0
    4.4389    7.8607   25.0707 H   0  0  0  0  0  0  0  0  0  0  0  0
    5.1235    8.0252   23.4428 H   0  0  0  0  0  0  0  0  0  0  0  0
    5.2831    5.6627   25.3442 H   0  0  0  0  0  0  0  0  0  0  0  0
    6.5449    6.3450   24.3039 H   0  0  0  0  0  0  0  0  0  0  0  0
    4.4073    4.4403   23.6798 H   0  0  0  0  0  0  0  0  0  0  0  0
    7.1795    4.7128   22.7167 H   0  0  0  0  0  0  0  0  0  0  0  0
    6.0684    3.4459   22.2305 H   0  0  0  0  0  0  0  0  0  0  0  0
    7.0363    3.9687   25.1037 H   0  0  0  0  0  0  0  0  0  0  0  0
    5.8864    2.6922   24.6434 H   0  0  0  0  0  0  0  0  0  0  0  0
    9.0421    3.0239   23.7350 C   0  0  0  0  0  0  0  0  0  0  0  0
    9.2390    4.2180   23.9359 O   0  0  0  0  0  0  0  0  0  0  0  0
   10.0956    2.1319   23.1551 C   0  0  0  0  0  0  0  0  0  0  0  0
   11.4093    2.5968   23.1317 C   0  0  0  0  0  0  0  0  0  0  0  0
   12.4208    1.8489   22.5583 C   0  0  0  0  0  0  0  0  0  0  0  0
   12.0814    0.6030   22.0182 C   0  0  0  0  0  0  0  0  0  0  0  0
   13.3373   -0.4431   21.4298 Cl  0  0  0  0  0  0  0  0  0  0  0  0
   10.7691    0.1595   21.9679 C   0  0  0  0  0  0  0  0  0  0  0  0
    9.7657    0.8777   22.6234 C   0  0  0  0  0  0  0  0  0  0  0  0
   10.5202   -0.7054   21.3550 H   0  0  0  0  0  0  0  0  0  0  0  0
   13.4342    2.2471   22.4680 H   0  0  0  0  0  0  0  0  0  0  0  0
   11.6009    3.5677   23.5761 H   0  0  0  0  0  0  0  0  0  0  0  0
    6.6018    0.7588   23.9132 H   0  0  0  0  0  0  0  0  0  0  0  0
    8.0959    0.5258   24.8107 H   0  0  0  0  0  0  0  0  0  0  0  0
    7.0886   -2.3781   21.1836 H   0  0  0  0  0  0  0  0  0  0  0  0
    6.0756   -1.6176   22.4276 H   0  0  0  0  0  0  0  0  0  0  0  0
    9.0720   -1.5754   22.1272 H   0  0  0  0  0  0  0  0  0  0  0  0
    8.1101   -2.9860   23.8806 H   0  0  0  0  0  0  0  0  0  0  0  0
    7.2459   -1.6173   24.5706 H   0  0  0  0  0  0  0  0  0  0  0  0
    9.0200   -1.6800   24.6460 H   0  0  0  0  0  0  0  0  0  0  0  0
  1  2  1  0
  2  3  1  0
  3  4  1  0
  4  5  1  0
  5  6  2  0
  6  7  1  0
  7  8  2  0
  8  9  1  0
  9 10  2  0
 10 11  1  0
 11 12  2  0
 12 13  1  0
 13 14  2  0
 13 15  1  0
 12 16  1  0
 11 17  1  0
 10 18  1  0
  8 19  1  0
  6 20  1  0
  4 21  1  0
 21 22  2  0
 21 23  1  0
 23 24  1  1
 24 25  1  0
 25 26  1  0
 26 27  1  0
 27 28  1  0
 28 29  1  0
 29 30  1  0
 30 31  1  0
 31 32  1  0
 32 33  1  0
 33 34  1  0
 33 35  1  0
 33 36  1  0
 32 37  1  0
 37 38  1  0
 37 39  1  0
 37 40  1  0
 32 41  1  0
 41 42  1  0
 41 43  1  0
 30 44  1  0
 30 45  1  0
 29 46  1  0
 29 47  1  0
 28 48  1  1
 27 49  1  0
 27 50  1  0
 26 51  1  0
 26 52  1  0
 25 53  1  0
 53 54  2  0
 53 55  1  0
 55 56  2  0
 56 57  1  0
 57 58  2  0
 58 59  1  0
 58 60  1  0
 60 61  2  0
 60 62  1  0
 57 63  1  0
 56 64  1  0
 24 65  1  0
 24 66  1  0
  3 67  1  0
  3 68  1  0
  2 69  1  6
  1 70  1  0
  1 71  1  0
  1 72  1  0
 23  2  1  0
 41 28  1  0
 61 55  1  0
 14  5  1  0
 61 23  1  0
 14  9  1  0
M  CHG  1  28   1
M  END
>  <cnnaffinities>  (33) 
[6.35372, 6.31006, 6.08761, 6.18412, 6.10104, 6.1158, 6.15955, 6.15706, 6.14097]

>  <score>  (33) 
6.35372

>  <index>  (33) 
32

>  <Smiles>  (33) 
C([C@]1(C(N(c2c(nc(c3c(c(c(c(c23)[H])[H])[H])[H])[H])[H])C(=O)[C@]21C(N(C(C([N@+]1(C(C(OC(C([H])([H])[H])(C([H])([H])[H])C1([H])[H])([H])[H])([H])[H])[H])([H])[H])([H])[H])C(=O)c1c(c(c(Cl)c(c21)[H])[H])[H])([H])[H])([H])[H])[H])([H])([H])[H]

>  <h>  (33) 
<NA>

>  <Training>  (33) 
True

>  <Success>  (33) 
True

>  <enamine_searched>  (33) 
False

>  <enamine_id>  (33) 
nan

$$$$

     RDKit          3D

 44 47  0  0  0  0  0  0  0  0999 V2000
    8.0325    1.6100   20.2768 O   0  0  0  0  0  0  0  0  0  0  0  0
    7.7206    0.9707   21.2623 C   0  0  0  0  0  0  0  0  0  0  0  0
    6.8831   -0.3122   21.0850 C   0  0  0  0  0  0  0  0  0  0  0  0
    5.8657   -0.1772   19.9767 C   0  0  0  0  0  0  0  0  0  0  0  0
    6.0394   -0.7987   18.7684 C   0  0  0  0  0  0  0  0  0  0  0  0
    5.2227   -0.6719   17.6866 N   0  0  0  0  0  0  0  0  0  0  0  0
    4.1619    0.0832   17.8292 C   0  0  0  0  0  0  0  0  0  0  0  0
    3.8204    0.7456   19.0393 C   0  0  0  0  0  0  0  0  0  0  0  0
    2.6377    1.5137   19.1708 C   0  0  0  0  0  0  0  0  0  0  0  0
    2.3329    2.1473   20.3427 C   0  0  0  0  0  0  0  0  0  0  0  0
    3.2186    2.0510   21.4385 C   0  0  0  0  0  0  0  0  0  0  0  0
    4.3713    1.3136   21.3413 C   0  0  0  0  0  0  0  0  0  0  0  0
    4.7004    0.6264   20.1431 C   0  0  0  0  0  0  0  0  0  0  0  0
    5.0412    1.2639   22.1945 H   0  0  0  0  0  0  0  0  0  0  0  0
    2.9797    2.5737   22.3595 H   0  0  0  0  0  0  0  0  0  0  0  0
    1.4233    2.7391   20.4302 H   0  0  0  0  0  0  0  0  0  0  0  0
    1.9824    1.6105   18.3133 H   0  0  0  0  0  0  0  0  0  0  0  0
    3.5055    0.1983   16.9608 H   0  0  0  0  0  0  0  0  0  0  0  0
    6.8808   -1.4743   18.6123 H   0  0  0  0  0  0  0  0  0  0  0  0
    6.3981   -0.6165   22.0169 H   0  0  0  0  0  0  0  0  0  0  0  0
    7.5842   -1.1090   20.8046 H   0  0  0  0  0  0  0  0  0  0  0  0
    8.1100    1.3851   22.5064 N   0  0  0  0  0  0  0  0  0  0  0  0
    8.8658    2.6268   22.6550 C   0  0  0  0  0  0  0  0  0  0  0  0
    9.2854    2.6502   24.1248 C   0  0  0  0  0  0  0  0  0  0  0  0
    8.3925    1.6261   24.8359 C   0  0  0  0  0  0  0  0  0  0  0  0
    7.9039    0.6648   23.7465 C   0  0  2  0  0  0  0  0  0  0  0  0
    8.6247   -0.6676   23.7712 C   0  0  0  0  0  0  0  0  0  0  0  0
    7.9814   -1.8018   24.2629 C   0  0  0  0  0  0  0  0  0  0  0  0
    8.6408   -3.0255   24.3102 C   0  0  0  0  0  0  0  0  0  0  0  0
    9.9551   -3.1382   23.8761 C   0  0  0  0  0  0  0  0  0  0  0  0
   10.5817   -1.9926   23.4149 C   0  0  0  0  0  0  0  0  0  0  0  0
   11.8555   -2.0820   22.9960 F   0  0  0  0  0  0  0  0  0  0  0  0
    9.9528   -0.7602   23.3611 C   0  0  0  0  0  0  0  0  0  0  0  0
   10.5037    0.0988   22.9861 H   0  0  0  0  0  0  0  0  0  0  0  0
   10.4953   -4.0795   23.8957 H   0  0  0  0  0  0  0  0  0  0  0  0
    8.1249   -3.9029   24.6808 H   0  0  0  0  0  0  0  0  0  0  0  0
    6.9535   -1.7286   24.6110 H   0  0  0  0  0  0  0  0  0  0  0  0
    6.8349    0.4780   23.8819 H   0  0  0  0  0  0  0  0  0  0  0  0
    7.5502    2.1214   25.3263 H   0  0  0  0  0  0  0  0  0  0  0  0
    8.9089    1.0718   25.6187 H   0  0  0  0  0  0  0  0  0  0  0  0
    9.1566    3.6453   24.5468 H   0  0  0  0  0  0  0  0  0  0  0  0
   10.3464    2.4047   24.2211 H   0  0  0  0  0  0  0  0  0  0  0  0
    9.7296    2.6516   21.9827 H   0  0  0  0  0  0  0  0  0  0  0  0
    8.2400    3.4858   22.3928 H   0  0  0  0  0  0  0  0  0  0  0  0
  1  2  2  0
  2  3  1  0
  3  4  1  0
  4  5  2  0
  5  6  1  0
  6  7  2  0
  7  8  1  0
  8  9  2  0
  9 10  1  0
 10 11  2  0
 11 12  1  0
 12 13  2  0
 12 14  1  0
 11 15  1  0
 10 16  1  0
  9 17  1  0
  7 18  1  0
  5 19  1  0
  3 20  1  0
  3 21  1  0
  2 22  1  0
 22 23  1  0
 23 24  1  0
 24 25  1  0
 25 26  1  0
 26 27  1  0
 27 28  2  0
 28 29  1  0
 29 30  2  0
 30 31  1  0
 31 32  1  0
 31 33  2  0
 33 34  1  0
 30 35  1  0
 29 36  1  0
 28 37  1  0
 26 38  1  1
 25 39  1  0
 25 40  1  0
 24 41  1  0
 24 42  1  0
 23 43  1  0
 23 44  1  0
 13  4  1  0
 26 22  1  0
 33 27  1  0
 13  8  1  0
M  END
>  <cnnaffinities>  (34) 
[5.66257, 5.58651, 5.59941, 5.61438, 5.54768]

>  <score>  (34) 
5.66257

>  <index>  (34) 
33

>  <Smiles>  (34) 
O=C(C(c1c(nc(c2c(c(c(c(c12)[H])[H])[H])[H])[H])[H])([H])[H])N1C(C(C([C@@]1(c1c(c(c(c(F)c1[H])[H])[H])[H])[H])([H])[H])([H])[H])([H])[H]

>  <h>  (34) 
<NA>

>  <Training>  (34) 
True

>  <Success>  (34) 
True

>  <enamine_searched>  (34) 
False

>  <enamine_id>  (34) 
nan

$$$$

     RDKit          3D

 58 63  0  0  0  0  0  0  0  0999 V2000
    7.0554   -1.3227   24.1882 C   0  0  0  0  0  0  0  0  0  0  0  0
    7.9183   -1.1605   22.9243 C   0  0  1  0  0  0  0  0  0  0  0  0
    7.1346   -1.5531   21.6523 C   0  0  0  0  0  0  0  0  0  0  0  0
    6.8086   -0.2825   21.0460 N   0  0  0  0  0  0  0  0  0  0  0  0
    5.8917   -0.1249   19.9831 C   0  0  0  0  0  0  0  0  0  0  0  0
    6.0932   -0.7573   18.7834 C   0  0  0  0  0  0  0  0  0  0  0  0
    5.2952   -0.6129   17.7022 N   0  0  0  0  0  0  0  0  0  0  0  0
    4.2404    0.1588   17.8341 C   0  0  0  0  0  0  0  0  0  0  0  0
    3.8876    0.8337   19.0367 C   0  0  0  0  0  0  0  0  0  0  0  0
    2.7081    1.6171   19.1472 C   0  0  0  0  0  0  0  0  0  0  0  0
    2.3554    2.1817   20.3435 C   0  0  0  0  0  0  0  0  0  0  0  0
    3.1906    2.0306   21.4741 C   0  0  0  0  0  0  0  0  0  0  0  0
    4.3610    1.3177   21.3820 C   0  0  0  0  0  0  0  0  0  0  0  0
    4.7336    0.6890   20.1596 C   0  0  0  0  0  0  0  0  0  0  0  0
    5.0221    1.2450   22.2410 H   0  0  0  0  0  0  0  0  0  0  0  0
    2.9241    2.5177   22.4096 H   0  0  0  0  0  0  0  0  0  0  0  0
    1.4353    2.7549   20.4276 H   0  0  0  0  0  0  0  0  0  0  0  0
    2.1025    1.7627   18.2587 H   0  0  0  0  0  0  0  0  0  0  0  0
    3.5889    0.2613   16.9660 H   0  0  0  0  0  0  0  0  0  0  0  0
    6.9601   -1.4007   18.6438 H   0  0  0  0  0  0  0  0  0  0  0  0
    7.6876    0.7221   21.3827 C   0  0  0  0  0  0  0  0  0  0  0  0
    7.8336    1.7434   20.7480 O   0  0  0  0  0  0  0  0  0  0  0  0
    8.4744    0.2800   22.6383 C   0  0  1  0  0  0  0  0  0  0  0  0
    8.2228    1.2439   23.8364 C   0  0  0  0  0  0  0  0  0  0  0  0
    8.8435    2.5497   23.6663 N   0  0  0  0  0  0  0  0  0  0  0  0
    8.1248    3.7636   24.0587 C   0  0  0  0  0  0  0  0  0  0  0  0
    7.4286    4.4160   22.9009 C   0  0  0  0  0  0  0  0  0  0  0  0
    7.8598    5.4638   22.0864 C   0  0  0  0  0  0  0  0  0  0  0  0
    6.9433    5.6822   21.1508 N   0  0  0  0  0  0  0  0  0  0  0  0
    6.0097    4.7955   21.4094 N   0  0  0  0  0  0  0  0  0  0  0  0
    4.8262    4.7060   20.5844 C   0  0  0  0  0  0  0  0  0  0  0  0
    4.9270    5.5015   19.8600 H   0  0  0  0  0  0  0  0  0  0  0  0
    4.7704    3.7416   20.0767 H   0  0  0  0  0  0  0  0  0  0  0  0
    3.9245    4.8478   21.1799 H   0  0  0  0  0  0  0  0  0  0  0  0
    6.2374    4.0050   22.4463 N   0  0  0  0  0  0  0  0  0  0  0  0
    8.7677    6.0423   22.1267 H   0  0  0  0  0  0  0  0  0  0  0  0
    8.8540    4.4499   24.5010 H   0  0  0  0  0  0  0  0  0  0  0  0
    7.3807    3.5084   24.8180 H   0  0  0  0  0  0  0  0  0  0  0  0
   10.0920    2.7106   23.1314 C   0  0  0  0  0  0  0  0  0  0  0  0
   10.6795    3.7873   23.1408 O   0  0  0  0  0  0  0  0  0  0  0  0
   10.7141    1.4764   22.5469 C   0  0  0  0  0  0  0  0  0  0  0  0
   12.0877    1.4955   22.2949 C   0  0  0  0  0  0  0  0  0  0  0  0
   12.7425    0.3645   21.8432 C   0  0  0  0  0  0  0  0  0  0  0  0
   11.9841   -0.7663   21.5703 C   0  0  0  0  0  0  0  0  0  0  0  0
   12.6034   -1.8798   21.1489 F   0  0  0  0  0  0  0  0  0  0  0  0
   10.6153   -0.7939   21.7512 C   0  0  0  0  0  0  0  0  0  0  0  0
    9.9632    0.3142   22.3128 C   0  0  0  0  0  0  0  0  0  0  0  0
   10.0904   -1.6939   21.4591 H   0  0  0  0  0  0  0  0  0  0  0  0
   13.8149    0.3466   21.6867 H   0  0  0  0  0  0  0  0  0  0  0  0
   12.6476    2.4045   22.5017 H   0  0  0  0  0  0  0  0  0  0  0  0
    7.1452    1.4107   23.9416 H   0  0  0  0  0  0  0  0  0  0  0  0
    8.5951    0.7528   24.7514 H   0  0  0  0  0  0  0  0  0  0  0  0
    6.2156   -2.1088   21.8675 H   0  0  0  0  0  0  0  0  0  0  0  0
    7.7513   -2.1715   20.9841 H   0  0  0  0  0  0  0  0  0  0  0  0
    8.7607   -1.8437   23.0692 H   0  0  0  0  0  0  0  0  0  0  0  0
    7.6227   -1.0715   25.0894 H   0  0  0  0  0  0  0  0  0  0  0  0
    6.7396   -2.3667   24.2947 H   0  0  0  0  0  0  0  0  0  0  0  0
    6.1503   -0.7038   24.1718 H   0  0  0  0  0  0  0  0  0  0  0  0
  1  2  1  0
  2  3  1  0
  3  4  1  0
  4  5  1  0
  5  6  2  0
  6  7  1  0
  7  8  2  0
  8  9  1  0
  9 10  2  0
 10 11  1  0
 11 12  2  0
 12 13  1  0
 13 14  2  0
 13 15  1  0
 12 16  1  0
 11 17  1  0
 10 18  1  0
  8 19  1  0
  6 20  1  0
  4 21  1  0
 21 22  2  0
 21 23  1  0
 23 24  1  1
 24 25  1  0
 25 26  1  0
 26 27  1  0
 27 28  1  0
 28 29  2  0
 29 30  1  0
 30 31  1  0
 31 32  1  0
 31 33  1  0
 31 34  1  0
 30 35  1  0
 28 36  1  0
 26 37  1  0
 26 38  1  0
 25 39  1  0
 39 40  2  0
 39 41  1  0
 41 42  2  0
 42 43  1  0
 43 44  2  0
 44 45  1  0
 44 46  1  0
 46 47  2  0
 46 48  1  0
 43 49  1  0
 42 50  1  0
 24 51  1  0
 24 52  1  0
  3 53  1  0
  3 54  1  0
  2 55  1  1
  1 56  1  0
  1 57  1  0
  1 58  1  0
 23  2  1  0
 35 27  2  0
 47 41  1  0
 14  5  1  0
 47 23  1  0
 14  9  1  0
M  END
>  <cnnaffinities>  (35) 
[6.13842, 5.99573, 6.09991, 6.05709]

>  <score>  (35) 
6.13842

>  <index>  (35) 
34

>  <Smiles>  (35) 
C([C@]1(C(N(c2c(nc(c3c(c(c(c(c23)[H])[H])[H])[H])[H])[H])C(=O)[C@]21C(N(C(c1c(nn(C([H])([H])[H])n1)[H])([H])[H])C(=O)c1c(c(c(F)c(c21)[H])[H])[H])([H])[H])([H])[H])[H])([H])([H])[H]

>  <h>  (35) 
<NA>

>  <Training>  (35) 
True

>  <Success>  (35) 
True

>  <enamine_searched>  (35) 
False

>  <enamine_id>  (35) 
nan

$$$$

     RDKit          3D

 51 54  0  0  0  0  0  0  0  0999 V2000
   11.1068    7.8547   21.2719 N   0  0  0  0  0  0  0  0  0  0  0  0
   10.1960    7.5406   21.9089 C   0  0  0  0  0  0  0  0  0  0  0  0
    9.0662    7.1504   22.7756 C   0  0  0  0  0  0  0  0  0  0  0  0
    8.7193    5.6823   22.6717 C   0  0  0  0  0  0  0  0  0  0  0  0
    9.6253    4.7627   23.1927 C   0  0  0  0  0  0  0  0  0  0  0  0
    9.3842    3.4012   23.1255 C   0  0  0  0  0  0  0  0  0  0  0  0
    8.2334    2.9204   22.4946 C   0  0  0  0  0  0  0  0  0  0  0  0
    7.9658    1.5147   22.4479 N   0  0  0  0  0  0  0  0  0  0  0  0
    7.9576    0.7563   23.6925 C   0  0  0  0  0  0  0  0  0  0  0  0
    6.6193    0.8039   24.4071 C   0  0  0  0  0  0  0  0  0  0  0  0
    5.8642   -0.3490   24.6226 C   0  0  0  0  0  0  0  0  0  0  0  0
    4.6180   -0.2790   25.2395 C   0  0  0  0  0  0  0  0  0  0  0  0
    4.1131    0.9459   25.6616 C   0  0  0  0  0  0  0  0  0  0  0  0
    4.8824    2.0887   25.4675 C   0  0  0  0  0  0  0  0  0  0  0  0
    4.2587    3.6268   26.0043 Cl  0  0  0  0  0  0  0  0  0  0  0  0
    6.1262    2.0314   24.8500 C   0  0  0  0  0  0  0  0  0  0  0  0
    6.7079    2.9397   24.7019 H   0  0  0  0  0  0  0  0  0  0  0  0
    3.1385    1.0212   26.1331 H   0  0  0  0  0  0  0  0  0  0  0  0
    4.0372   -1.1877   25.3755 H   0  0  0  0  0  0  0  0  0  0  0  0
    6.2516   -1.3160   24.3044 H   0  0  0  0  0  0  0  0  0  0  0  0
    8.2435   -0.2766   23.4744 H   0  0  0  0  0  0  0  0  0  0  0  0
    8.7280    1.1808   24.3455 H   0  0  0  0  0  0  0  0  0  0  0  0
    7.7002    0.9551   21.2035 C   0  0  0  0  0  0  0  0  0  0  0  0
    8.1132    1.4538   20.1826 O   0  0  0  0  0  0  0  0  0  0  0  0
    6.8737   -0.3314   21.0969 C   0  0  0  0  0  0  0  0  0  0  0  0
    5.8596   -0.1969   19.9887 C   0  0  0  0  0  0  0  0  0  0  0  0
    6.0540   -0.7945   18.7701 C   0  0  0  0  0  0  0  0  0  0  0  0
    5.2497   -0.6507   17.6858 N   0  0  0  0  0  0  0  0  0  0  0  0
    4.1854    0.0992   17.8328 C   0  0  0  0  0  0  0  0  0  0  0  0
    3.8347    0.7588   19.0435 C   0  0  0  0  0  0  0  0  0  0  0  0
    2.6567    1.5386   19.1661 C   0  0  0  0  0  0  0  0  0  0  0  0
    2.3488    2.1563   20.3426 C   0  0  0  0  0  0  0  0  0  0  0  0
    3.2262    2.0489   21.4476 C   0  0  0  0  0  0  0  0  0  0  0  0
    4.3813    1.3121   21.3523 C   0  0  0  0  0  0  0  0  0  0  0  0
    4.7056    0.6263   20.1510 C   0  0  0  0  0  0  0  0  0  0  0  0
    5.0468    1.2538   22.2114 H   0  0  0  0  0  0  0  0  0  0  0  0
    2.9857    2.5629   22.3744 H   0  0  0  0  0  0  0  0  0  0  0  0
    1.4356    2.7383   20.4367 H   0  0  0  0  0  0  0  0  0  0  0  0
    2.0153    1.6514   18.2969 H   0  0  0  0  0  0  0  0  0  0  0  0
    3.5220    0.1963   16.9714 H   0  0  0  0  0  0  0  0  0  0  0  0
    6.9118   -1.4472   18.6142 H   0  0  0  0  0  0  0  0  0  0  0  0
    7.5850   -1.1236   20.8371 H   0  0  0  0  0  0  0  0  0  0  0  0
    6.4093   -0.5912   22.0458 H   0  0  0  0  0  0  0  0  0  0  0  0
    7.3244    3.8390   21.9584 C   0  0  0  0  0  0  0  0  0  0  0  0
    7.5619    5.2070   22.0596 C   0  0  0  0  0  0  0  0  0  0  0  0
    6.8448    5.8973   21.6177 H   0  0  0  0  0  0  0  0  0  0  0  0
    6.4303    3.4647   21.4615 H   0  0  0  0  0  0  0  0  0  0  0  0
   10.1183    2.7091   23.5322 H   0  0  0  0  0  0  0  0  0  0  0  0
   10.5383    5.1338   23.6516 H   0  0  0  0  0  0  0  0  0  0  0  0
    9.3473    7.4005   23.8085 H   0  0  0  0  0  0  0  0  0  0  0  0
    8.2203    7.7954   22.5172 H   0  0  0  0  0  0  0  0  0  0  0  0
  1  2  3  0
  2  3  1  0
  3  4  1  0
  4  5  2  0
  5  6  1  0
  6  7  2  0
  7  8  1  0
  8  9  1  0
  9 10  1  0
 10 11  2  0
 11 12  1  0
 12 13  2  0
 13 14  1  0
 14 15  1  0
 14 16  2  0
 16 17  1  0
 13 18  1  0
 12 19  1  0
 11 20  1  0
  9 21  1  0
  9 22  1  0
  8 23  1  0
 23 24  2  0
 23 25  1  0
 25 26  1  0
 26 27  2  0
 27 28  1  0
 28 29  2  0
 29 30  1  0
 30 31  2  0
 31 32  1  0
 32 33  2  0
 33 34  1  0
 34 35  2  0
 34 36  1  0
 33 37  1  0
 32 38  1  0
 31 39  1  0
 29 40  1  0
 27 41  1  0
 25 42  1  0
 25 43  1  0
  7 44  1  0
 44 45  2  0
 45 46  1  0
 44 47  1  0
  6 48  1  0
  5 49  1  0
  3 50  1  0
  3 51  1  0
 45  4  1  0
 16 10  1  0
 35 26  1  0
 35 30  1  0
M  END
>  <cnnaffinities>  (36) 
[6.06185, 6.06474, 6.2769, 5.9838, 6.34928, 6.13382, 6.13355, 5.97873, 6.08505, 6.08501, 5.95424, 5.95786, 6.11866, 6.1524, 6.1214, 6.15657, 6.26375]

>  <score>  (36) 
6.06185

>  <index>  (36) 
35

>  <Smiles>  (36) 
N#CC(c1c(c(c(N(C(c2c(c(c(c(Cl)c2[H])[H])[H])[H])([H])[H])C(=O)C(c2c(nc(c3c(c(c(c(c23)[H])[H])[H])[H])[H])[H])([H])[H])c(c1[H])[H])[H])[H])([H])[H]

>  <h>  (36) 
<NA>

>  <Training>  (36) 
True

>  <Success>  (36) 
True

>  <enamine_searched>  (36) 
False

>  <enamine_id>  (36) 
nan

$$$$

     RDKit          3D

 59 64  0  0  0  0  0  0  0  0999 V2000
    7.0251   -1.2694   24.2030 C   0  0  0  0  0  0  0  0  0  0  0  0
    7.8924   -1.1487   22.9398 C   0  0  1  0  0  0  0  0  0  0  0  0
    7.1020   -1.5565   21.6763 C   0  0  0  0  0  0  0  0  0  0  0  0
    6.7974   -0.2940   21.0479 N   0  0  0  0  0  0  0  0  0  0  0  0
    5.8853   -0.1322   19.9824 C   0  0  0  0  0  0  0  0  0  0  0  0
    6.0919   -0.7549   18.7782 C   0  0  0  0  0  0  0  0  0  0  0  0
    5.2955   -0.6067   17.6958 N   0  0  0  0  0  0  0  0  0  0  0  0
    4.2385    0.1626   17.8309 C   0  0  0  0  0  0  0  0  0  0  0  0
    3.8870    0.8345   19.0364 C   0  0  0  0  0  0  0  0  0  0  0  0
    2.7084    1.6177   19.1493 C   0  0  0  0  0  0  0  0  0  0  0  0
    2.3554    2.1755   20.3491 C   0  0  0  0  0  0  0  0  0  0  0  0
    3.1895    2.0224   21.4788 C   0  0  0  0  0  0  0  0  0  0  0  0
    4.3661    1.3204   21.3820 C   0  0  0  0  0  0  0  0  0  0  0  0
    4.7315    0.6861   20.1589 C   0  0  0  0  0  0  0  0  0  0  0  0
    5.0395    1.2725   22.2325 H   0  0  0  0  0  0  0  0  0  0  0  0
    2.9247    2.5113   22.4134 H   0  0  0  0  0  0  0  0  0  0  0  0
    1.4352    2.7457   20.4364 H   0  0  0  0  0  0  0  0  0  0  0  0
    2.1056    1.7715   18.2612 H   0  0  0  0  0  0  0  0  0  0  0  0
    3.5865    0.2702   16.9637 H   0  0  0  0  0  0  0  0  0  0  0  0
    6.9610   -1.3953   18.6382 H   0  0  0  0  0  0  0  0  0  0  0  0
    7.7004    0.6994   21.3555 C   0  0  0  0  0  0  0  0  0  0  0  0
    7.8709    1.6934   20.6871 O   0  0  0  0  0  0  0  0  0  0  0  0
    8.4680    0.2790   22.6295 C   0  0  1  0  0  0  0  0  0  0  0  0
    8.2211    1.2619   23.8119 C   0  0  0  0  0  0  0  0  0  0  0  0
    8.8627    2.5542   23.6426 N   0  0  0  0  0  0  0  0  0  0  0  0
    8.1703    3.7703   24.0670 C   0  0  0  0  0  0  0  0  0  0  0  0
    7.4666    4.4466   22.9265 C   0  0  0  0  0  0  0  0  0  0  0  0
    7.9353    5.5401   22.1710 C   0  0  0  0  0  0  0  0  0  0  0  0
    6.9704    5.7305   21.2092 C   0  0  0  0  0  0  0  0  0  0  0  0
    6.0127    4.8065   21.4201 N   0  0  0  0  0  0  0  0  0  0  0  0
    4.8002    4.6360   20.6548 C   0  0  0  0  0  0  0  0  0  0  0  0
    4.7574    5.4543   19.9501 H   0  0  0  0  0  0  0  0  0  0  0  0
    4.8013    3.6903   20.1078 H   0  0  0  0  0  0  0  0  0  0  0  0
    3.9232    4.6733   21.3041 H   0  0  0  0  0  0  0  0  0  0  0  0
    6.2950    4.0075   22.4656 N   0  0  0  0  0  0  0  0  0  0  0  0
    6.8934    6.4390   20.3931 H   0  0  0  0  0  0  0  0  0  0  0  0
    8.8604    6.0933   22.2761 H   0  0  0  0  0  0  0  0  0  0  0  0
    8.9134    4.4397   24.5112 H   0  0  0  0  0  0  0  0  0  0  0  0
    7.4410    3.5111   24.8408 H   0  0  0  0  0  0  0  0  0  0  0  0
   10.1147    2.6941   23.1074 C   0  0  0  0  0  0  0  0  0  0  0  0
   10.7218    3.7590   23.1170 O   0  0  0  0  0  0  0  0  0  0  0  0
   10.7226    1.4436   22.5425 C   0  0  0  0  0  0  0  0  0  0  0  0
   12.0990    1.4412   22.2961 C   0  0  0  0  0  0  0  0  0  0  0  0
   12.7373    0.2980   21.8497 C   0  0  0  0  0  0  0  0  0  0  0  0
   11.9582   -0.8213   21.5827 C   0  0  0  0  0  0  0  0  0  0  0  0
   12.5587   -1.9446   21.1501 F   0  0  0  0  0  0  0  0  0  0  0  0
   10.5868   -0.8213   21.7438 C   0  0  0  0  0  0  0  0  0  0  0  0
    9.9569    0.2944   22.3085 C   0  0  0  0  0  0  0  0  0  0  0  0
   10.0425   -1.7140   21.4551 H   0  0  0  0  0  0  0  0  0  0  0  0
   13.8117    0.2583   21.6962 H   0  0  0  0  0  0  0  0  0  0  0  0
   12.6753    2.3367   22.5055 H   0  0  0  0  0  0  0  0  0  0  0  0
    7.1459    1.4414   23.9065 H   0  0  0  0  0  0  0  0  0  0  0  0
    8.5805    0.7755   24.7333 H   0  0  0  0  0  0  0  0  0  0  0  0
    7.7070   -2.2018   21.0222 H   0  0  0  0  0  0  0  0  0  0  0  0
    6.1750   -2.0920   21.9049 H   0  0  0  0  0  0  0  0  0  0  0  0
    8.7253   -1.8400   23.0985 H   0  0  0  0  0  0  0  0  0  0  0  0
    6.1326   -0.6344   24.1682 H   0  0  0  0  0  0  0  0  0  0  0  0
    6.6899   -2.3038   24.3319 H   0  0  0  0  0  0  0  0  0  0  0  0
    7.5940   -1.0082   25.0993 H   0  0  0  0  0  0  0  0  0  0  0  0
  1  2  1  0
  2  3  1  0
  3  4  1  0
  4  5  1  0
  5  6  2  0
  6  7  1  0
  7  8  2  0
  8  9  1  0
  9 10  2  0
 10 11  1  0
 11 12  2  0
 12 13  1  0
 13 14  2  0
 13 15  1  0
 12 16  1  0
 11 17  1  0
 10 18  1  0
  8 19  1  0
  6 20  1  0
  4 21  1  0
 21 22  2  0
 21 23  1  0
 23 24  1  1
 24 25  1  0
 25 26  1  0
 26 27  1  0
 27 28  1  0
 28 29  2  0
 29 30  1  0
 30 31  1  0
 31 32  1  0
 31 33  1  0
 31 34  1  0
 30 35  1  0
 29 36  1  0
 28 37  1  0
 26 38  1  0
 26 39  1  0
 25 40  1  0
 40 41  2  0
 40 42  1  0
 42 43  2  0
 43 44  1  0
 44 45  2  0
 45 46  1  0
 45 47  1  0
 47 48  2  0
 47 49  1  0
 44 50  1  0
 43 51  1  0
 24 52  1  0
 24 53  1  0
  3 54  1  0
  3 55  1  0
  2 56  1  1
  1 57  1  0
  1 58  1  0
  1 59  1  0
 23  2  1  0
 35 27  2  0
 48 42  1  0
 14  5  1  0
 48 23  1  0
 14  9  1  0
M  END
>  <cnnaffinities>  (37) 
[6.05399, 6.01444]

>  <score>  (37) 
6.05399

>  <index>  (37) 
36

>  <Smiles>  (37) 
C([C@]1(C(N(c2c(nc(c3c(c(c(c(c23)[H])[H])[H])[H])[H])[H])C(=O)[C@]21C(N(C(c1c(c(n(C([H])([H])[H])n1)[H])[H])([H])[H])C(=O)c1c(c(c(F)c(c21)[H])[H])[H])([H])[H])([H])[H])[H])([H])([H])[H]

>  <h>  (37) 
<NA>

>  <Training>  (37) 
True

>  <Success>  (37) 
True

>  <enamine_searched>  (37) 
False

>  <enamine_id>  (37) 
nan

$$$$

     RDKit          3D

 48 51  0  0  0  0  0  0  0  0999 V2000
   13.7938    0.3403   23.5184 N   0  0  0  0  0  0  0  0  0  0  0  0
   12.7264   -0.0853   23.3797 C   0  0  0  0  0  0  0  0  0  0  0  0
   11.3986   -0.6145   23.2050 C   0  0  0  0  0  0  0  0  0  0  0  0
   11.2144   -1.8547   22.5828 C   0  0  0  0  0  0  0  0  0  0  0  0
    9.9325   -2.3583   22.4157 C   0  0  0  0  0  0  0  0  0  0  0  0
    8.8258   -1.6242   22.8404 C   0  0  0  0  0  0  0  0  0  0  0  0
    7.5187   -2.1606   22.6374 N   0  0  0  0  0  0  0  0  0  0  0  0
    7.1254   -3.3453   23.4017 C   0  0  0  0  0  0  0  0  0  0  0  0
    6.7061   -3.0072   24.8239 C   0  0  0  0  0  0  0  0  0  0  0  0
    7.6938   -2.8682   25.7910 C   0  0  0  0  0  0  0  0  0  0  0  0
    7.3613   -2.5866   27.1010 C   0  0  0  0  0  0  0  0  0  0  0  0
    6.0467   -2.3251   27.4600 C   0  0  0  0  0  0  0  0  0  0  0  0
    5.0581   -2.4756   26.4935 C   0  0  0  0  0  0  0  0  0  0  0  0
    3.3837   -2.2464   26.9348 Cl  0  0  0  0  0  0  0  0  0  0  0  0
    5.3656   -2.8369   25.1837 C   0  0  0  0  0  0  0  0  0  0  0  0
    4.5717   -2.9719   24.4499 H   0  0  0  0  0  0  0  0  0  0  0  0
    5.7908   -2.0256   28.4712 H   0  0  0  0  0  0  0  0  0  0  0  0
    8.1547   -2.6785   27.8216 H   0  0  0  0  0  0  0  0  0  0  0  0
    8.7431   -2.9886   25.5320 H   0  0  0  0  0  0  0  0  0  0  0  0
    8.0029   -4.0045   23.4182 H   0  0  0  0  0  0  0  0  0  0  0  0
    6.3061   -3.8274   22.8581 H   0  0  0  0  0  0  0  0  0  0  0  0
    6.4954   -1.4860   22.0097 C   0  0  0  0  0  0  0  0  0  0  0  0
    5.3329   -1.8169   22.1758 O   0  0  0  0  0  0  0  0  0  0  0  0
    6.8936   -0.3633   21.0521 C   0  0  0  0  0  0  0  0  0  0  0  0
    5.8767   -0.1701   19.9648 C   0  0  0  0  0  0  0  0  0  0  0  0
    6.0426   -0.8040   18.7628 C   0  0  0  0  0  0  0  0  0  0  0  0
    5.2331   -0.6638   17.6831 N   0  0  0  0  0  0  0  0  0  0  0  0
    4.1749    0.0963   17.8310 C   0  0  0  0  0  0  0  0  0  0  0  0
    3.8255    0.7490   19.0438 C   0  0  0  0  0  0  0  0  0  0  0  0
    2.6450    1.5249   19.1677 C   0  0  0  0  0  0  0  0  0  0  0  0
    2.3268    2.1291   20.3516 C   0  0  0  0  0  0  0  0  0  0  0  0
    3.1957    2.0064   21.4582 C   0  0  0  0  0  0  0  0  0  0  0  0
    4.3518    1.2701   21.3607 C   0  0  0  0  0  0  0  0  0  0  0  0
    4.6974    0.6142   20.1482 C   0  0  0  0  0  0  0  0  0  0  0  0
    5.0097    1.1758   22.2187 H   0  0  0  0  0  0  0  0  0  0  0  0
    2.9527    2.5147   22.3869 H   0  0  0  0  0  0  0  0  0  0  0  0
    1.4105    2.7068   20.4402 H   0  0  0  0  0  0  0  0  0  0  0  0
    2.0122    1.6457   18.2972 H   0  0  0  0  0  0  0  0  0  0  0  0
    3.5152    0.1935   16.9687 H   0  0  0  0  0  0  0  0  0  0  0  0
    6.8914   -1.4700   18.6064 H   0  0  0  0  0  0  0  0  0  0  0  0
    7.8734   -0.6286   20.6385 H   0  0  0  0  0  0  0  0  0  0  0  0
    7.0510    0.5600   21.6260 H   0  0  0  0  0  0  0  0  0  0  0  0
    9.0106   -0.3981   23.4843 C   0  0  0  0  0  0  0  0  0  0  0  0
   10.2911    0.1070   23.6598 C   0  0  0  0  0  0  0  0  0  0  0  0
   10.4410    1.0662   24.1419 H   0  0  0  0  0  0  0  0  0  0  0  0
    8.1519    0.1475   23.8688 H   0  0  0  0  0  0  0  0  0  0  0  0
    9.7737   -3.3267   21.9466 H   0  0  0  0  0  0  0  0  0  0  0  0
   12.0738   -2.4230   22.2405 H   0  0  0  0  0  0  0  0  0  0  0  0
  1  2  3  0
  2  3  1  0
  3  4  2  0
  4  5  1  0
  5  6  2  0
  6  7  1  0
  7  8  1  0
  8  9  1  0
  9 10  2  0
 10 11  1  0
 11 12  2  0
 12 13  1  0
 13 14  1  0
 13 15  2  0
 15 16  1  0
 12 17  1  0
 11 18  1  0
 10 19  1  0
  8 20  1  0
  8 21  1  0
  7 22  1  0
 22 23  2  0
 22 24  1  0
 24 25  1  0
 25 26  2  0
 26 27  1  0
 27 28  2  0
 28 29  1  0
 29 30  2  0
 30 31  1  0
 31 32  2  0
 32 33  1  0
 33 34  2  0
 33 35  1  0
 32 36  1  0
 31 37  1  0
 30 38  1  0
 28 39  1  0
 26 40  1  0
 24 41  1  0
 24 42  1  0
  6 43  1  0
 43 44  2  0
 44 45  1  0
 43 46  1  0
  5 47  1  0
  4 48  1  0
 44  3  1  0
 15  9  1  0
 34 25  1  0
 34 29  1  0
M  END
>  <cnnaffinities>  (38) 
[6.17735, 6.17829, 6.03583, 6.21936, 6.21921, 6.03566, 5.84415, 5.84335, 5.73413, 5.73436, 5.96366, 5.95276, 5.97296, 5.97249, 6.45635, 6.44642, 6.23516]

>  <score>  (38) 
6.17735

>  <index>  (38) 
37

>  <Smiles>  (38) 
N#Cc1c(c(c(N(C(c2c(c(c(c(Cl)c2[H])[H])[H])[H])([H])[H])C(=O)C(c2c(nc(c3c(c(c(c(c23)[H])[H])[H])[H])[H])[H])([H])[H])c(c1[H])[H])[H])[H]

>  <h>  (38) 
<NA>

>  <Training>  (38) 
True

>  <Success>  (38) 
True

>  <enamine_searched>  (38) 
False

>  <enamine_id>  (38) 
nan

$$$$

     RDKit          3D

 72 77  0  0  0  0  0  0  0  0999 V2000
    8.0843    6.1538   22.1664 C   0  0  0  0  0  0  0  0  0  0  0  0
    7.7225    4.7611   21.8104 N   0  0  0  0  0  4  0  0  0  0  0  0
    6.7904    4.1080   22.7662 C   0  0  0  0  0  0  0  0  0  0  0  0
    7.5436    3.6069   24.0014 C   0  0  0  0  0  0  0  0  0  0  0  0
    8.4842    2.5474   23.6358 N   0  0  0  0  0  0  0  0  0  0  0  0
    8.0021    1.1800   23.6621 C   0  0  0  0  0  0  0  0  0  0  0  0
    8.5233    0.2983   22.4864 C   0  0  2  0  0  0  0  0  0  0  0  0
    7.7940    0.6983   21.1871 C   0  0  0  0  0  0  0  0  0  0  0  0
    7.9627    1.7067   20.5337 O   0  0  0  0  0  0  0  0  0  0  0  0
    6.8642   -0.2777   20.8950 N   0  0  0  0  0  0  0  0  0  0  0  0
    5.9079   -0.1032   19.8656 C   0  0  0  0  0  0  0  0  0  0  0  0
    6.1101   -0.6911   18.6461 C   0  0  0  0  0  0  0  0  0  0  0  0
    5.2849   -0.5438   17.5815 N   0  0  0  0  0  0  0  0  0  0  0  0
    4.2116    0.1932   17.7482 C   0  0  0  0  0  0  0  0  0  0  0  0
    3.8665    0.8368   18.9732 C   0  0  0  0  0  0  0  0  0  0  0  0
    2.7009    1.6378   19.1118 C   0  0  0  0  0  0  0  0  0  0  0  0
    2.3846    2.2032   20.3162 C   0  0  0  0  0  0  0  0  0  0  0  0
    3.2167    2.0099   21.4400 C   0  0  0  0  0  0  0  0  0  0  0  0
    4.3644    1.2657   21.3236 C   0  0  0  0  0  0  0  0  0  0  0  0
    4.7236    0.6670   20.0815 C   0  0  0  0  0  0  0  0  0  0  0  0
    5.0017    1.1399   22.1928 H   0  0  0  0  0  0  0  0  0  0  0  0
    2.9508    2.4558   22.3943 H   0  0  0  0  0  0  0  0  0  0  0  0
    1.4927    2.8135   20.4168 H   0  0  0  0  0  0  0  0  0  0  0  0
    2.0772    1.8081   18.2402 H   0  0  0  0  0  0  0  0  0  0  0  0
    3.5399    0.2930   16.8950 H   0  0  0  0  0  0  0  0  0  0  0  0
    6.9931   -1.3084   18.4877 H   0  0  0  0  0  0  0  0  0  0  0  0
    6.7390   -1.3025   21.9110 C   0  0  0  0  0  0  0  0  0  0  0  0
    8.0601   -1.1739   22.6720 C   0  0  2  0  0  0  0  0  0  0  0  0
    7.9669   -1.6470   24.1186 C   0  0  0  0  0  0  0  0  0  0  0  0
    9.1791   -1.3986   24.8099 O   0  0  0  0  0  0  0  0  0  0  0  0
   10.1321   -2.4184   24.6371 C   0  0  0  0  0  0  0  0  0  0  0  0
    9.9837   -3.4692   25.7291 C   0  0  0  0  0  0  0  0  0  0  0  0
   10.4928   -2.9753   27.1182 C   0  0  0  0  0  0  0  0  0  0  0  0
   11.7677   -4.2661   27.1171 S   0  0  0  0  0  0  0  0  0  0  0  0
   13.1067   -3.7135   26.9876 O   0  0  0  0  0  0  0  0  0  0  0  0
   11.4608   -5.2915   28.1030 O   0  0  0  0  0  0  0  0  0  0  0  0
   10.9976   -4.6076   25.5132 C   0  0  0  0  0  0  0  0  0  0  0  0
   10.6651   -5.6441   25.4417 H   0  0  0  0  0  0  0  0  0  0  0  0
   11.6583   -4.3432   24.6944 H   0  0  0  0  0  0  0  0  0  0  0  0
   10.9463   -1.9801   27.1138 H   0  0  0  0  0  0  0  0  0  0  0  0
    9.8072   -3.0874   27.9636 H   0  0  0  0  0  0  0  0  0  0  0  0
    8.9585   -3.8432   25.7829 H   0  0  0  0  0  0  0  0  0  0  0  0
   11.1352   -1.9654   24.6790 H   0  0  0  0  0  0  0  0  0  0  0  0
   10.0480   -2.8870   23.6416 H   0  0  0  0  0  0  0  0  0  0  0  0
    7.1855   -1.0909   24.6507 H   0  0  0  0  0  0  0  0  0  0  0  0
    7.6952   -2.7123   24.1718 H   0  0  0  0  0  0  0  0  0  0  0  0
    8.7932   -1.7862   22.1439 H   0  0  0  0  0  0  0  0  0  0  0  0
    6.6078   -2.2820   21.4422 H   0  0  0  0  0  0  0  0  0  0  0  0
    5.8719   -1.1322   22.5717 H   0  0  0  0  0  0  0  0  0  0  0  0
   10.0279    0.4887   22.3914 C   0  0  0  0  0  0  0  0  0  0  0  0
   10.9007   -0.5002   21.9238 C   0  0  0  0  0  0  0  0  0  0  0  0
   12.2676   -0.2731   21.9061 C   0  0  0  0  0  0  0  0  0  0  0  0
   13.3120   -1.5489   21.3484 Cl  0  0  0  0  0  0  0  0  0  0  0  0
   12.8265    0.9402   22.3049 C   0  0  0  0  0  0  0  0  0  0  0  0
   11.9650    1.9408   22.6998 C   0  0  0  0  0  0  0  0  0  0  0  0
   10.5897    1.7206   22.7492 C   0  0  0  0  0  0  0  0  0  0  0  0
    9.7017    2.8585   23.1279 C   0  0  0  0  0  0  0  0  0  0  0  0
   10.0449    4.0237   22.9164 O   0  0  0  0  0  0  0  0  0  0  0  0
   12.3351    2.9219   22.9769 H   0  0  0  0  0  0  0  0  0  0  0  0
   13.9010    1.0995   22.2952 H   0  0  0  0  0  0  0  0  0  0  0  0
   10.5402   -1.4562   21.5598 H   0  0  0  0  0  0  0  0  0  0  0  0
    6.9052    1.1904   23.6469 H   0  0  0  0  0  0  0  0  0  0  0  0
    8.3259    0.7039   24.5889 H   0  0  0  0  0  0  0  0  0  0  0  0
    8.0932    4.4152   24.4987 H   0  0  0  0  0  0  0  0  0  0  0  0
    6.8410    3.2083   24.7396 H   0  0  0  0  0  0  0  0  0  0  0  0
    6.3121    3.2660   22.2579 H   0  0  0  0  0  0  0  0  0  0  0  0
    5.9999    4.8106   23.0472 H   0  0  0  0  0  0  0  0  0  0  0  0
    7.3676    4.7154   20.8398 H   0  0  0  0  0  0  0  0  0  0  0  0
    8.6195    4.2565   21.7832 H   0  0  0  0  0  0  0  0  0  0  0  0
    8.5198    6.6572   21.3006 H   0  0  0  0  0  0  0  0  0  0  0  0
    8.8275    6.1401   22.9647 H   0  0  0  0  0  0  0  0  0  0  0  0
    7.2039    6.7073   22.4983 H   0  0  0  0  0  0  0  0  0  0  0  0
  1  2  1  0
  2  3  1  0
  3  4  1  0
  4  5  1  0
  5  6  1  0
  7  6  1  1
  7  8  1  0
  8  9  2  0
  8 10  1  0
 10 11  1  0
 11 12  2  0
 12 13  1  0
 13 14  2  0
 14 15  1  0
 15 16  2  0
 16 17  1  0
 17 18  2  0
 18 19  1  0
 19 20  2  0
 19 21  1  0
 18 22  1  0
 17 23  1  0
 16 24  1  0
 14 25  1  0
 12 26  1  0
 10 27  1  0
 27 28  1  0
 28 29  1  0
 29 30  1  0
 30 31  1  0
 31 32  1  0
 32 33  1  0
 33 34  1  0
 34 35  2  0
 34 36  2  0
 34 37  1  0
 37 38  1  0
 37 39  1  0
 33 40  1  0
 33 41  1  0
 32 42  1  0
 31 43  1  0
 31 44  1  0
 29 45  1  0
 29 46  1  0
 28 47  1  6
 27 48  1  0
 27 49  1  0
  7 50  1  0
 50 51  2  0
 51 52  1  0
 52 53  1  0
 52 54  2  0
 54 55  1  0
 55 56  2  0
 56 57  1  0
 57 58  2  0
 55 59  1  0
 54 60  1  0
 51 61  1  0
  6 62  1  0
  6 63  1  0
  4 64  1  0
  4 65  1  0
  3 66  1  0
  3 67  1  0
  2 68  1  0
  2 69  1  0
  1 70  1  0
  1 71  1  0
  1 72  1  0
 57  5  1  0
 28  7  1  0
 37 32  1  0
 56 50  1  0
 20 11  1  0
 20 15  1  0
M  CHG  1   2   1
M  END
>  <cnnaffinities>  (39) 
[6.7765]

>  <score>  (39) 
6.7765

>  <index>  (39) 
38

>  <Smiles>  (39) 
C([N+](C(C(N1C([C@@]2(C(=O)N(c3c(nc(c4c(c(c(c(c34)[H])[H])[H])[H])[H])[H])C([C@@]2(C(OC(C2(C(S(=O)(=O)C2([H])[H])([H])[H])[H])([H])[H])([H])[H])[H])([H])[H])c2c(c(Cl)c(c(c2C1=O)[H])[H])[H])([H])[H])([H])[H])([H])[H])([H])[H])([H])([H])[H]

>  <h>  (39) 
<NA>

>  <Training>  (39) 
True

>  <Success>  (39) 
True

>  <enamine_searched>  (39) 
False

>  <enamine_id>  (39) 
nan

$$$$

     RDKit          3D

 60 64  0  0  0  0  0  0  0  0999 V2000
    8.8533   -2.0570   26.1991 C   0  0  0  0  0  0  0  0  0  0  0  0
    9.1388   -1.9704   24.7146 C   0  0  0  0  0  0  0  0  0  0  0  0
    7.9405   -1.5743   24.0677 O   0  0  0  0  0  0  0  0  0  0  0  0
    8.1090   -1.1817   22.7317 C   0  0  1  0  0  0  0  0  0  0  0  0
    6.7982   -1.3509   21.9689 C   0  0  0  0  0  0  0  0  0  0  0  0
    6.8591   -0.2988   20.9813 N   0  0  0  0  0  0  0  0  0  0  0  0
    5.8985   -0.1412   19.9521 C   0  0  0  0  0  0  0  0  0  0  0  0
    6.0846   -0.7752   18.7528 C   0  0  0  0  0  0  0  0  0  0  0  0
    5.2669   -0.6453   17.6812 N   0  0  0  0  0  0  0  0  0  0  0  0
    4.2071    0.1146   17.8291 C   0  0  0  0  0  0  0  0  0  0  0  0
    3.8660    0.7868   19.0385 C   0  0  0  0  0  0  0  0  0  0  0  0
    2.6883    1.5704   19.1610 C   0  0  0  0  0  0  0  0  0  0  0  0
    2.3703    2.1672   20.3500 C   0  0  0  0  0  0  0  0  0  0  0  0
    3.2373    2.0538   21.4595 C   0  0  0  0  0  0  0  0  0  0  0  0
    4.3988    1.3291   21.3580 C   0  0  0  0  0  0  0  0  0  0  0  0
    4.7345    0.6617   20.1451 C   0  0  0  0  0  0  0  0  0  0  0  0
    5.0633    1.2624   22.2143 H   0  0  0  0  0  0  0  0  0  0  0  0
    2.9967    2.5579   22.3906 H   0  0  0  0  0  0  0  0  0  0  0  0
    1.4445    2.7258   20.4505 H   0  0  0  0  0  0  0  0  0  0  0  0
    2.0569    1.6914   18.2880 H   0  0  0  0  0  0  0  0  0  0  0  0
    3.5404    0.2080   16.9724 H   0  0  0  0  0  0  0  0  0  0  0  0
    6.9552   -1.4142   18.6208 H   0  0  0  0  0  0  0  0  0  0  0  0
    7.7905    0.6831   21.2413 C   0  0  0  0  0  0  0  0  0  0  0  0
    7.9342    1.6824   20.5699 O   0  0  0  0  0  0  0  0  0  0  0  0
    8.5601    0.2937   22.5211 C   0  0  1  0  0  0  0  0  0  0  0  0
    8.1141    1.2012   23.6981 C   0  0  0  0  0  0  0  0  0  0  0  0
    8.6327    2.5581   23.5556 N   0  0  0  0  0  0  0  0  0  0  0  0
    7.8178    3.6563   24.0374 C   0  0  0  0  0  0  0  0  0  0  0  0
    6.6947    3.9758   23.0435 C   0  0  0  0  0  0  0  0  0  0  0  0
    5.5327    3.6736   23.2706 O   0  0  0  0  0  0  0  0  0  0  0  0
    7.0715    4.6249   21.9042 N   0  0  0  0  0  0  0  0  0  0  0  0
    6.0313    4.9755   20.9433 C   0  0  0  0  0  0  0  0  0  0  0  0
    5.5102    4.0646   20.6067 H   0  0  0  0  0  0  0  0  0  0  0  0
    5.2990    5.6459   21.4080 H   0  0  0  0  0  0  0  0  0  0  0  0
    6.4616    5.5226   20.0998 H   0  0  0  0  0  0  0  0  0  0  0  0
    8.0293    4.5209   21.5863 H   0  0  0  0  0  0  0  0  0  0  0  0
    7.3672    3.3887   24.9988 H   0  0  0  0  0  0  0  0  0  0  0  0
    8.4747    4.5196   24.1954 H   0  0  0  0  0  0  0  0  0  0  0  0
    9.9410    2.8057   23.2370 C   0  0  0  0  0  0  0  0  0  0  0  0
   10.4637    3.9012   23.4014 O   0  0  0  0  0  0  0  0  0  0  0  0
   10.7045    1.6515   22.6635 C   0  0  0  0  0  0  0  0  0  0  0  0
   12.0801    1.7987   22.4742 C   0  0  0  0  0  0  0  0  0  0  0  0
   12.8264    0.7641   21.9435 C   0  0  0  0  0  0  0  0  0  0  0  0
   12.1741   -0.4128   21.5843 C   0  0  0  0  0  0  0  0  0  0  0  0
   13.1069   -1.7243   20.9332 Cl  0  0  0  0  0  0  0  0  0  0  0  0
   10.8045   -0.5450   21.6977 C   0  0  0  0  0  0  0  0  0  0  0  0
   10.0537    0.4602   22.3178 C   0  0  0  0  0  0  0  0  0  0  0  0
   10.3311   -1.4324   21.2953 H   0  0  0  0  0  0  0  0  0  0  0  0
   13.8984    0.8494   21.8067 H   0  0  0  0  0  0  0  0  0  0  0  0
   12.5361    2.7511   22.7273 H   0  0  0  0  0  0  0  0  0  0  0  0
    8.4644    0.7634   24.6389 H   0  0  0  0  0  0  0  0  0  0  0  0
    7.0201    1.2410   23.7450 H   0  0  0  0  0  0  0  0  0  0  0  0
    5.9558   -1.2517   22.6659 H   0  0  0  0  0  0  0  0  0  0  0  0
    6.7398   -2.3328   21.4882 H   0  0  0  0  0  0  0  0  0  0  0  0
    8.8421   -1.8389   22.2582 H   0  0  0  0  0  0  0  0  0  0  0  0
    9.9447   -1.2466   24.5131 H   0  0  0  0  0  0  0  0  0  0  0  0
    9.4650   -2.9459   24.3195 H   0  0  0  0  0  0  0  0  0  0  0  0
    8.5901   -1.0704   26.5956 H   0  0  0  0  0  0  0  0  0  0  0  0
    8.0229   -2.7443   26.3822 H   0  0  0  0  0  0  0  0  0  0  0  0
    9.7337   -2.4240   26.7346 H   0  0  0  0  0  0  0  0  0  0  0  0
  1  2  1  0
  2  3  1  0
  3  4  1  0
  4  5  1  0
  5  6  1  0
  6  7  1  0
  7  8  2  0
  8  9  1  0
  9 10  2  0
 10 11  1  0
 11 12  2  0
 12 13  1  0
 13 14  2  0
 14 15  1  0
 15 16  2  0
 15 17  1  0
 14 18  1  0
 13 19  1  0
 12 20  1  0
 10 21  1  0
  8 22  1  0
  6 23  1  0
 23 24  2  0
 23 25  1  0
 25 26  1  1
 26 27  1  0
 27 28  1  0
 28 29  1  0
 29 30  2  0
 29 31  1  0
 31 32  1  0
 32 33  1  0
 32 34  1  0
 32 35  1  0
 31 36  1  0
 28 37  1  0
 28 38  1  0
 27 39  1  0
 39 40  2  0
 39 41  1  0
 41 42  2  0
 42 43  1  0
 43 44  2  0
 44 45  1  0
 44 46  1  0
 46 47  2  0
 46 48  1  0
 43 49  1  0
 42 50  1  0
 26 51  1  0
 26 52  1  0
  5 53  1  0
  5 54  1  0
  4 55  1  6
  2 56  1  0
  2 57  1  0
  1 58  1  0
  1 59  1  0
  1 60  1  0
 25  4  1  0
 47 41  1  0
 16  7  1  0
 47 25  1  0
 16 11  1  0
M  END
>  <cnnaffinities>  (40) 
[6.25716, 6.40616]

>  <score>  (40) 
6.25716

>  <index>  (40) 
39

>  <Smiles>  (40) 
C(C(O[C@]1(C(N(c2c(nc(c3c(c(c(c(c23)[H])[H])[H])[H])[H])[H])C(=O)[C@]21C(N(C(C(=O)N(C([H])([H])[H])[H])([H])[H])C(=O)c1c(c(c(Cl)c(c21)[H])[H])[H])([H])[H])([H])[H])[H])([H])[H])([H])([H])[H]

>  <h>  (40) 
<NA>

>  <Training>  (40) 
True

>  <Success>  (40) 
True

>  <enamine_searched>  (40) 
False

>  <enamine_id>  (40) 
nan

$$$$

     RDKit          3D

 57 61  0  0  0  0  0  0  0  0999 V2000
    8.2404    6.2779   26.1875 C   0  0  0  0  0  0  0  0  0  0  0  0
    8.2642    5.6948   24.8617 N   0  0  0  0  0  0  0  0  0  0  0  0
    7.5564    4.5510   24.6408 C   0  0  0  0  0  0  0  0  0  0  0  0
    6.8582    4.0025   25.4814 O   0  0  0  0  0  0  0  0  0  0  0  0
    7.7042    4.0134   23.2167 C   0  0  0  0  0  0  0  0  0  0  0  0
    8.6014    2.8769   23.1734 N   0  0  0  0  0  0  0  0  0  0  0  0
    8.1111    1.5566   23.5194 C   0  0  0  0  0  0  0  0  0  0  0  0
    8.5478    0.5057   22.4658 C   0  0  2  0  0  0  0  0  0  0  0  0
    7.7885    0.7458   21.1464 C   0  0  0  0  0  0  0  0  0  0  0  0
    7.9144    1.6805   20.3889 O   0  0  0  0  0  0  0  0  0  0  0  0
    6.8928   -0.2854   20.9535 N   0  0  0  0  0  0  0  0  0  0  0  0
    5.9011   -0.1585   19.9508 C   0  0  0  0  0  0  0  0  0  0  0  0
    6.0873   -0.7775   18.7442 C   0  0  0  0  0  0  0  0  0  0  0  0
    5.2588   -0.6550   17.6792 N   0  0  0  0  0  0  0  0  0  0  0  0
    4.1966    0.1008   17.8308 C   0  0  0  0  0  0  0  0  0  0  0  0
    3.8657    0.7762   19.0423 C   0  0  0  0  0  0  0  0  0  0  0  0
    2.6950    1.5689   19.1589 C   0  0  0  0  0  0  0  0  0  0  0  0
    2.3821    2.1771   20.3415 C   0  0  0  0  0  0  0  0  0  0  0  0
    3.2404    2.0533   21.4539 C   0  0  0  0  0  0  0  0  0  0  0  0
    4.3910    1.3098   21.3638 C   0  0  0  0  0  0  0  0  0  0  0  0
    4.7330    0.6448   20.1472 C   0  0  0  0  0  0  0  0  0  0  0  0
    5.0410    1.2288   22.2313 H   0  0  0  0  0  0  0  0  0  0  0  0
    2.9886    2.5524   22.3845 H   0  0  0  0  0  0  0  0  0  0  0  0
    1.4684    2.7531   20.4346 H   0  0  0  0  0  0  0  0  0  0  0  0
    2.0638    1.6842   18.2863 H   0  0  0  0  0  0  0  0  0  0  0  0
    3.5173    0.1897   16.9816 H   0  0  0  0  0  0  0  0  0  0  0  0
    6.9633   -1.4054   18.6034 H   0  0  0  0  0  0  0  0  0  0  0  0
    6.8173   -1.2146   22.0597 C   0  0  0  0  0  0  0  0  0  0  0  0
    8.1073   -0.9364   22.8354 C   0  0  2  0  0  0  0  0  0  0  0  0
    7.9833   -1.2428   24.3335 C   0  0  0  0  0  0  0  0  0  0  0  0
    7.6989   -2.6672   24.5618 C   0  0  0  0  0  0  0  0  0  0  0  0
    7.4664   -3.7885   24.7232 N   0  0  0  0  0  0  0  0  0  0  0  0
    7.1689   -0.6609   24.7785 H   0  0  0  0  0  0  0  0  0  0  0  0
    8.9094   -0.9897   24.8595 H   0  0  0  0  0  0  0  0  0  0  0  0
    8.8642   -1.6141   22.4457 H   0  0  0  0  0  0  0  0  0  0  0  0
    5.9286   -1.0427   22.6849 H   0  0  0  0  0  0  0  0  0  0  0  0
    6.7707   -2.2464   21.6997 H   0  0  0  0  0  0  0  0  0  0  0  0
   10.0445    0.6714   22.2629 C   0  0  0  0  0  0  0  0  0  0  0  0
   10.8003   -0.3790   21.7421 C   0  0  0  0  0  0  0  0  0  0  0  0
   12.1692   -0.2495   21.6157 C   0  0  0  0  0  0  0  0  0  0  0  0
   13.0791   -1.6057   21.0230 Cl  0  0  0  0  0  0  0  0  0  0  0  0
   12.8297    0.9432   21.9046 C   0  0  0  0  0  0  0  0  0  0  0  0
   12.0761    2.0149   22.3327 C   0  0  0  0  0  0  0  0  0  0  0  0
   10.7000    1.8850   22.5197 C   0  0  0  0  0  0  0  0  0  0  0  0
    9.9252    3.0960   22.9346 C   0  0  0  0  0  0  0  0  0  0  0  0
   10.4241    4.2165   22.9932 O   0  0  0  0  0  0  0  0  0  0  0  0
   12.5255    2.9844   22.5159 H   0  0  0  0  0  0  0  0  0  0  0  0
   13.9042    1.0173   21.7707 H   0  0  0  0  0  0  0  0  0  0  0  0
   10.3326   -1.3022   21.4185 H   0  0  0  0  0  0  0  0  0  0  0  0
    7.0216    1.6146   23.6030 H   0  0  0  0  0  0  0  0  0  0  0  0
    8.4990    1.2635   24.5054 H   0  0  0  0  0  0  0  0  0  0  0  0
    6.7232    3.6903   22.8454 H   0  0  0  0  0  0  0  0  0  0  0  0
    8.0901    4.7946   22.5514 H   0  0  0  0  0  0  0  0  0  0  0  0
    9.1026    5.8074   24.3047 H   0  0  0  0  0  0  0  0  0  0  0  0
    8.5077    5.5383   26.9484 H   0  0  0  0  0  0  0  0  0  0  0  0
    8.9397    7.1156   26.2291 H   0  0  0  0  0  0  0  0  0  0  0  0
    7.2348    6.6485   26.4073 H   0  0  0  0  0  0  0  0  0  0  0  0
  1  2  1  0
  2  3  1  0
  3  4  2  0
  3  5  1  0
  5  6  1  0
  6  7  1  0
  8  7  1  1
  8  9  1  0
  9 10  2  0
  9 11  1  0
 11 12  1  0
 12 13  2  0
 13 14  1  0
 14 15  2  0
 15 16  1  0
 16 17  2  0
 17 18  1  0
 18 19  2  0
 19 20  1  0
 20 21  2  0
 20 22  1  0
 19 23  1  0
 18 24  1  0
 17 25  1  0
 15 26  1  0
 13 27  1  0
 11 28  1  0
 28 29  1  0
 29 30  1  0
 30 31  1  0
 31 32  3  0
 30 33  1  0
 30 34  1  0
 29 35  1  6
 28 36  1  0
 28 37  1  0
  8 38  1  0
 38 39  2  0
 39 40  1  0
 40 41  1  0
 40 42  2  0
 42 43  1  0
 43 44  2  0
 44 45  1  0
 45 46  2  0
 43 47  1  0
 42 48  1  0
 39 49  1  0
  7 50  1  0
  7 51  1  0
  5 52  1  0
  5 53  1  0
  2 54  1  0
  1 55  1  0
  1 56  1  0
  1 57  1  0
 45  6  1  0
 29  8  1  0
 44 38  1  0
 21 12  1  0
 21 16  1  0
M  END
>  <cnnaffinities>  (41) 
[6.13147, 6.52977, 6.11481, 6.01961]

>  <score>  (41) 
6.13147

>  <index>  (41) 
40

>  <Smiles>  (41) 
C(N(C(=O)C(N1C([C@@]2(C(=O)N(c3c(nc(c4c(c(c(c(c34)[H])[H])[H])[H])[H])[H])C([C@@]2(C(C#N)([H])[H])[H])([H])[H])c2c(c(Cl)c(c(c2C1=O)[H])[H])[H])([H])[H])([H])[H])[H])([H])([H])[H]

>  <h>  (41) 
<NA>

>  <Training>  (41) 
True

>  <Success>  (41) 
True

>  <enamine_searched>  (41) 
False

>  <enamine_id>  (41) 
nan

$$$$

     RDKit          3D

 68 73  0  0  0  0  0  0  0  0999 V2000
    8.0985   -1.6471   24.1891 C   0  0  0  0  0  0  0  0  0  0  0  0
    8.1255   -1.3146   22.6962 C   0  0  1  0  0  0  0  0  0  0  0  0
    6.7093   -1.2680   22.0785 C   0  0  0  0  0  0  0  0  0  0  0  0
    6.8493   -0.3324   20.9832 N   0  0  0  0  0  0  0  0  0  0  0  0
    5.8909   -0.1625   19.9534 C   0  0  0  0  0  0  0  0  0  0  0  0
    6.0673   -0.8016   18.7522 C   0  0  0  0  0  0  0  0  0  0  0  0
    5.2397   -0.6693   17.6898 N   0  0  0  0  0  0  0  0  0  0  0  0
    4.1807    0.0904   17.8401 C   0  0  0  0  0  0  0  0  0  0  0  0
    3.8333    0.7529   19.0538 C   0  0  0  0  0  0  0  0  0  0  0  0
    2.6500    1.5306   19.1792 C   0  0  0  0  0  0  0  0  0  0  0  0
    2.3411    2.1490   20.3585 C   0  0  0  0  0  0  0  0  0  0  0  0
    3.2158    2.0387   21.4600 C   0  0  0  0  0  0  0  0  0  0  0  0
    4.3760    1.3040   21.3628 C   0  0  0  0  0  0  0  0  0  0  0  0
    4.7144    0.6313   20.1523 C   0  0  0  0  0  0  0  0  0  0  0  0
    5.0441    1.2464   22.2159 H   0  0  0  0  0  0  0  0  0  0  0  0
    2.9812    2.5600   22.3848 H   0  0  0  0  0  0  0  0  0  0  0  0
    1.4351    2.7427   20.4496 H   0  0  0  0  0  0  0  0  0  0  0  0
    2.0070    1.6408   18.3162 H   0  0  0  0  0  0  0  0  0  0  0  0
    3.5210    0.1860   16.9792 H   0  0  0  0  0  0  0  0  0  0  0  0
    6.9158   -1.4667   18.6068 H   0  0  0  0  0  0  0  0  0  0  0  0
    8.0131    0.3920   21.0065 C   0  0  0  0  0  0  0  0  0  0  0  0
    8.3343    1.2004   20.1603 O   0  0  0  0  0  0  0  0  0  0  0  0
    8.8005    0.0320   22.2860 C   0  0  1  0  0  0  0  0  0  0  0  0
    8.5846    1.1347   23.3602 C   0  0  0  0  0  0  0  0  0  0  0  0
    9.1868    2.3985   22.9880 N   0  0  0  0  0  0  0  0  0  0  0  0
    8.4083    3.6199   23.0970 C   0  0  0  0  0  0  0  0  0  0  0  0
    7.4872    3.7916   21.8829 C   0  0  0  0  0  0  0  0  0  0  0  0
    6.6751    5.0517   21.8993 N   0  0  0  0  0  4  0  0  0  0  0  0
    5.5203    4.9802   22.8787 C   0  0  0  0  0  0  0  0  0  0  0  0
    4.8503    6.3337   23.0731 C   0  0  0  0  0  0  0  0  0  0  0  0
    4.2139    6.9739   21.5310 S   0  0  0  0  0  0  0  0  0  0  0  0
    3.1694    6.0431   21.1004 O   0  0  0  0  0  0  0  0  0  0  0  0
    3.9283    8.3925   21.6982 O   0  0  0  0  0  0  0  0  0  0  0  0
    5.6219    6.8109   20.4508 C   0  0  0  0  0  0  0  0  0  0  0  0
    6.1747    5.3986   20.5181 C   0  0  0  0  0  0  0  0  0  0  0  0
    5.4261    4.6516   20.2319 H   0  0  0  0  0  0  0  0  0  0  0  0
    7.0235    5.3279   19.8405 H   0  0  0  0  0  0  0  0  0  0  0  0
    6.3634    7.5512   20.7639 H   0  0  0  0  0  0  0  0  0  0  0  0
    5.2579    7.0860   19.4613 H   0  0  0  0  0  0  0  0  0  0  0  0
    5.5394    7.0899   23.4563 H   0  0  0  0  0  0  0  0  0  0  0  0
    3.9731    6.2625   23.7212 H   0  0  0  0  0  0  0  0  0  0  0  0
    5.9048    4.6394   23.8380 H   0  0  0  0  0  0  0  0  0  0  0  0
    4.7971    4.2450   22.5146 H   0  0  0  0  0  0  0  0  0  0  0  0
    7.3253    5.8225   22.1801 H   0  0  0  0  0  0  0  0  0  0  0  0
    8.0928    3.7921   20.9736 H   0  0  0  0  0  0  0  0  0  0  0  0
    6.8003    2.9383   21.8127 H   0  0  0  0  0  0  0  0  0  0  0  0
    9.1254    4.4392   23.1753 H   0  0  0  0  0  0  0  0  0  0  0  0
    7.8215    3.5741   24.0235 H   0  0  0  0  0  0  0  0  0  0  0  0
   10.4803    2.4543   22.5667 C   0  0  0  0  0  0  0  0  0  0  0  0
   11.1258    3.4921   22.4994 O   0  0  0  0  0  0  0  0  0  0  0  0
   11.0755    1.1320   22.1662 C   0  0  0  0  0  0  0  0  0  0  0  0
   12.4433    1.1044   21.9069 C   0  0  0  0  0  0  0  0  0  0  0  0
   13.0360   -0.0544   21.4587 C   0  0  0  0  0  0  0  0  0  0  0  0
   12.2325   -1.1451   21.1288 C   0  0  0  0  0  0  0  0  0  0  0  0
   12.9434   -2.4114   20.1772 Cl  0  0  0  0  0  0  0  0  0  0  0  0
   10.8748   -1.1453   21.3960 C   0  0  0  0  0  0  0  0  0  0  0  0
   10.2872   -0.0160   21.9864 C   0  0  0  0  0  0  0  0  0  0  0  0
   10.2835   -2.0067   21.0989 H   0  0  0  0  0  0  0  0  0  0  0  0
   14.1011   -0.0901   21.2824 H   0  0  0  0  0  0  0  0  0  0  0  0
   13.0081    2.0263   22.0001 H   0  0  0  0  0  0  0  0  0  0  0  0
    7.5146    1.3093   23.4957 H   0  0  0  0  0  0  0  0  0  0  0  0
    9.0147    0.7735   24.3086 H   0  0  0  0  0  0  0  0  0  0  0  0
    6.3767   -2.2420   21.7020 H   0  0  0  0  0  0  0  0  0  0  0  0
    5.9587   -0.9279   22.8102 H   0  0  0  0  0  0  0  0  0  0  0  0
    8.6807   -2.0983   22.1727 H   0  0  0  0  0  0  0  0  0  0  0  0
    7.6807   -2.6467   24.3560 H   0  0  0  0  0  0  0  0  0  0  0  0
    7.4680   -0.9350   24.7364 H   0  0  0  0  0  0  0  0  0  0  0  0
    9.0999   -1.6178   24.6340 H   0  0  0  0  0  0  0  0  0  0  0  0
  1  2  1  0
  2  3  1  0
  3  4  1  0
  4  5  1  0
  5  6  2  0
  6  7  1  0
  7  8  2  0
  8  9  1  0
  9 10  2  0
 10 11  1  0
 11 12  2  0
 12 13  1  0
 13 14  2  0
 13 15  1  0
 12 16  1  0
 11 17  1  0
 10 18  1  0
  8 19  1  0
  6 20  1  0
  4 21  1  0
 21 22  2  0
 21 23  1  0
 23 24  1  1
 24 25  1  0
 25 26  1  0
 26 27  1  0
 27 28  1  0
 28 29  1  0
 29 30  1  0
 30 31  1  0
 31 32  2  0
 31 33  2  0
 31 34  1  0
 34 35  1  0
 35 36  1  0
 35 37  1  0
 34 38  1  0
 34 39  1  0
 30 40  1  0
 30 41  1  0
 29 42  1  0
 29 43  1  0
 28 44  1  0
 27 45  1  0
 27 46  1  0
 26 47  1  0
 26 48  1  0
 25 49  1  0
 49 50  2  0
 49 51  1  0
 51 52  2  0
 52 53  1  0
 53 54  2  0
 54 55  1  0
 54 56  1  0
 56 57  2  0
 56 58  1  0
 53 59  1  0
 52 60  1  0
 24 61  1  0
 24 62  1  0
  3 63  1  0
  3 64  1  0
  2 65  1  6
  1 66  1  0
  1 67  1  0
  1 68  1  0
 23  2  1  0
 35 28  1  0
 57 51  1  0
 14  5  1  0
 57 23  1  0
 14  9  1  0
M  CHG  1  28   1
M  END
>  <cnnaffinities>  (42) 
[6.46916, 6.53804]

>  <score>  (42) 
6.46916

>  <index>  (42) 
41

>  <Smiles>  (42) 
C([C@]1(C(N(c2c(nc(c3c(c(c(c(c23)[H])[H])[H])[H])[H])[H])C(=O)[C@]21C(N(C(C([N+]1(C(C(S(=O)(=O)C(C1([H])[H])([H])[H])([H])[H])([H])[H])[H])([H])[H])([H])[H])C(=O)c1c(c(c(Cl)c(c21)[H])[H])[H])([H])[H])([H])[H])[H])([H])([H])[H]

>  <h>  (42) 
<NA>

>  <Training>  (42) 
True

>  <Success>  (42) 
True

>  <enamine_searched>  (42) 
False

>  <enamine_id>  (42) 
nan

$$$$

     RDKit          3D

 60 65  0  0  0  0  0  0  0  0999 V2000
    8.6627    6.3356   26.0011 C   0  0  0  0  0  0  0  0  0  0  0  0
    8.7034    5.6388   24.7255 N   0  0  0  0  0  0  0  0  0  0  0  0
    7.9872    4.4879   24.5482 C   0  0  0  0  0  0  0  0  0  0  0  0
    7.2828    3.9728   25.4000 O   0  0  0  0  0  0  0  0  0  0  0  0
    8.0836    3.9170   23.1285 C   0  0  0  0  0  0  0  0  0  0  0  0
    8.8970    2.7202   23.0284 N   0  0  0  0  0  0  0  0  0  0  0  0
    8.3411    1.4326   23.4095 C   0  0  0  0  0  0  0  0  0  0  0  0
    8.6752    0.3175   22.3855 C   0  0  2  0  0  0  0  0  0  0  0  0
    7.9055    0.5607   21.0723 C   0  0  0  0  0  0  0  0  0  0  0  0
    8.1361    1.4010   20.2350 O   0  0  0  0  0  0  0  0  0  0  0  0
    6.8616   -0.3360   20.9896 N   0  0  0  0  0  0  0  0  0  0  0  0
    5.8904   -0.1778   19.9685 C   0  0  0  0  0  0  0  0  0  0  0  0
    6.0919   -0.7758   18.7542 C   0  0  0  0  0  0  0  0  0  0  0  0
    5.2684   -0.6493   17.6835 N   0  0  0  0  0  0  0  0  0  0  0  0
    4.2008    0.0973   17.8338 C   0  0  0  0  0  0  0  0  0  0  0  0
    3.8633    0.7710   19.0435 C   0  0  0  0  0  0  0  0  0  0  0  0
    2.6953    1.5676   19.1596 C   0  0  0  0  0  0  0  0  0  0  0  0
    2.3944    2.1938   20.3362 C   0  0  0  0  0  0  0  0  0  0  0  0
    3.2646    2.0881   21.4436 C   0  0  0  0  0  0  0  0  0  0  0  0
    4.4105    1.3383   21.3534 C   0  0  0  0  0  0  0  0  0  0  0  0
    4.7307    0.6420   20.1528 C   0  0  0  0  0  0  0  0  0  0  0  0
    5.0813    1.2789   22.2078 H   0  0  0  0  0  0  0  0  0  0  0  0
    3.0226    2.6052   22.3666 H   0  0  0  0  0  0  0  0  0  0  0  0
    1.4837    2.7755   20.4295 H   0  0  0  0  0  0  0  0  0  0  0  0
    2.0561    1.6752   18.2902 H   0  0  0  0  0  0  0  0  0  0  0  0
    3.5254    0.1866   16.9793 H   0  0  0  0  0  0  0  0  0  0  0  0
    6.9725   -1.3982   18.6132 H   0  0  0  0  0  0  0  0  0  0  0  0
    6.7324   -1.1960   22.1459 C   0  0  0  0  0  0  0  0  0  0  0  0
    8.1145   -1.0752   22.8030 C   0  0  2  0  0  0  0  0  0  0  0  0
    8.1545   -1.4755   24.2878 C   0  0  0  0  0  0  0  0  0  0  0  0
    7.0304   -0.9667   25.1486 C   0  0  0  0  0  0  0  0  0  0  0  0
    5.8190   -1.5113   25.1758 N   0  0  0  0  0  0  0  0  0  0  0  0
    5.1239   -0.7808   26.0448 N   0  0  0  0  0  0  0  0  0  0  0  0
    5.8851    0.1623   26.5271 N   0  0  0  0  0  2  0  0  0  0  0  0
    7.0993    0.0625   25.9861 N   0  0  0  0  0  0  0  0  0  0  0  0
    8.1211   -2.5663   24.3528 H   0  0  0  0  0  0  0  0  0  0  0  0
    9.1030   -1.1625   24.7302 H   0  0  0  0  0  0  0  0  0  0  0  0
    8.7520   -1.7965   22.2924 H   0  0  0  0  0  0  0  0  0  0  0  0
    5.9318   -0.8730   22.8219 H   0  0  0  0  0  0  0  0  0  0  0  0
    6.5106   -2.2245   21.8459 H   0  0  0  0  0  0  0  0  0  0  0  0
   10.1774    0.3778   22.1467 C   0  0  0  0  0  0  0  0  0  0  0  0
   10.8737   -0.7279   21.6454 C   0  0  0  0  0  0  0  0  0  0  0  0
   12.2401   -0.6608   21.4454 C   0  0  0  0  0  0  0  0  0  0  0  0
   13.0548   -2.0298   20.7592 Cl  0  0  0  0  0  0  0  0  0  0  0  0
   12.9670    0.5025   21.6837 C   0  0  0  0  0  0  0  0  0  0  0  0
   12.2765    1.6182   22.1097 C   0  0  0  0  0  0  0  0  0  0  0  0
   10.9035    1.5643   22.3443 C   0  0  0  0  0  0  0  0  0  0  0  0
   10.2207    2.8446   22.7280 C   0  0  0  0  0  0  0  0  0  0  0  0
   10.7986    3.9270   22.7269 O   0  0  0  0  0  0  0  0  0  0  0  0
   12.7762    2.5675   22.2549 H   0  0  0  0  0  0  0  0  0  0  0  0
   14.0371    0.5318   21.5052 H   0  0  0  0  0  0  0  0  0  0  0  0
   10.3697   -1.6519   21.3866 H   0  0  0  0  0  0  0  0  0  0  0  0
    7.2617    1.5540   23.5230 H   0  0  0  0  0  0  0  0  0  0  0  0
    8.7281    1.1282   24.3905 H   0  0  0  0  0  0  0  0  0  0  0  0
    8.4962    4.6809   22.4651 H   0  0  0  0  0  0  0  0  0  0  0  0
    7.0704    3.6614   22.7913 H   0  0  0  0  0  0  0  0  0  0  0  0
    9.5762    5.6535   24.2050 H   0  0  0  0  0  0  0  0  0  0  0  0
    9.5607    6.9560   26.0876 H   0  0  0  0  0  0  0  0  0  0  0  0
    8.6092    5.6271   26.8337 H   0  0  0  0  0  0  0  0  0  0  0  0
    7.7659    6.9632   26.0779 H   0  0  0  0  0  0  0  0  0  0  0  0
  1  2  1  0
  2  3  1  0
  3  4  2  0
  3  5  1  0
  5  6  1  0
  6  7  1  0
  8  7  1  1
  8  9  1  0
  9 10  2  0
  9 11  1  0
 11 12  1  0
 12 13  2  0
 13 14  1  0
 14 15  2  0
 15 16  1  0
 16 17  2  0
 17 18  1  0
 18 19  2  0
 19 20  1  0
 20 21  2  0
 20 22  1  0
 19 23  1  0
 18 24  1  0
 17 25  1  0
 15 26  1  0
 13 27  1  0
 11 28  1  0
 28 29  1  0
 29 30  1  0
 30 31  1  0
 31 32  1  0
 32 33  2  0
 33 34  1  0
 34 35  1  0
 30 36  1  0
 30 37  1  0
 29 38  1  6
 28 39  1  0
 28 40  1  0
  8 41  1  0
 41 42  2  0
 42 43  1  0
 43 44  1  0
 43 45  2  0
 45 46  1  0
 46 47  2  0
 47 48  1  0
 48 49  2  0
 46 50  1  0
 45 51  1  0
 42 52  1  0
  7 53  1  0
  7 54  1  0
  5 55  1  0
  5 56  1  0
  2 57  1  0
  1 58  1  0
  1 59  1  0
  1 60  1  0
 48  6  1  0
 29  8  1  0
 35 31  2  0
 47 41  1  0
 21 12  1  0
 21 16  1  0
M  CHG  1  34  -1
M  END
>  <cnnaffinities>  (43) 
[6.29353, 6.06818, 6.6135, 6.60785, 6.81452, 6.00303, 6.81922, 6.34508, 6.45893]

>  <score>  (43) 
6.29353

>  <index>  (43) 
42

>  <Smiles>  (43) 
C(N(C(=O)C(N1C([C@@]2(C(=O)N(c3c(nc(c4c(c(c(c(c34)[H])[H])[H])[H])[H])[H])C([C@@]2(C(c2nn[n-]n2)([H])[H])[H])([H])[H])c2c(c(Cl)c(c(c2C1=O)[H])[H])[H])([H])[H])([H])[H])[H])([H])([H])[H]

>  <h>  (43) 
<NA>

>  <Training>  (43) 
True

>  <Success>  (43) 
True

>  <enamine_searched>  (43) 
False

>  <enamine_id>  (43) 
nan

$$$$

     RDKit          3D

 62 67  0  0  0  0  0  0  0  0999 V2000
    6.8513    5.0687   27.3558 C   0  0  0  0  0  0  0  0  0  0  0  0
    7.1047    3.5905   27.0979 C   0  0  0  0  0  0  0  0  0  0  0  0
    5.9816    2.8583   26.5560 N   0  0  0  0  0  0  0  0  0  0  0  0
    5.0683    2.3664   27.4064 N   0  0  0  0  0  0  0  0  0  0  0  0
    4.1600    1.7935   26.6324 C   0  0  0  0  0  0  0  0  0  0  0  0
    4.4777    1.9239   25.2655 C   0  0  0  0  0  0  0  0  0  0  0  0
    5.6833    2.6065   25.2494 C   0  0  0  0  0  0  0  0  0  0  0  0
    6.6362    3.0538   24.1810 C   0  0  0  0  0  0  0  0  0  0  0  0
    7.8826    2.2765   24.1154 N   0  0  0  0  0  0  0  0  0  0  0  0
    7.7813    0.8299   23.9601 C   0  0  0  0  0  0  0  0  0  0  0  0
    8.4407    0.3080   22.6483 C   0  0  2  0  0  0  0  0  0  0  0  0
    7.6187    0.7776   21.4254 C   0  0  0  0  0  0  0  0  0  0  0  0
    7.5929    1.8827   20.9235 O   0  0  0  0  0  0  0  0  0  0  0  0
    6.8771   -0.2888   20.9743 N   0  0  0  0  0  0  0  0  0  0  0  0
    5.9136   -0.1406   19.9578 C   0  0  0  0  0  0  0  0  0  0  0  0
    6.0999   -0.7722   18.7561 C   0  0  0  0  0  0  0  0  0  0  0  0
    5.2856   -0.6354   17.6853 N   0  0  0  0  0  0  0  0  0  0  0  0
    4.2292    0.1270   17.8462 C   0  0  0  0  0  0  0  0  0  0  0  0
    3.8890    0.7902   19.0584 C   0  0  0  0  0  0  0  0  0  0  0  0
    2.7159    1.5801   19.1671 C   0  0  0  0  0  0  0  0  0  0  0  0
    2.3714    2.1539   20.3606 C   0  0  0  0  0  0  0  0  0  0  0  0
    3.2019    1.9876   21.4935 C   0  0  0  0  0  0  0  0  0  0  0  0
    4.3604    1.2577   21.4066 C   0  0  0  0  0  0  0  0  0  0  0  0
    4.7392    0.6447   20.1730 C   0  0  0  0  0  0  0  0  0  0  0  0
    5.0037    1.1499   22.2770 H   0  0  0  0  0  0  0  0  0  0  0  0
    2.9176    2.4671   22.4272 H   0  0  0  0  0  0  0  0  0  0  0  0
    1.4545    2.7283   20.4468 H   0  0  0  0  0  0  0  0  0  0  0  0
    2.1136    1.7250   18.2770 H   0  0  0  0  0  0  0  0  0  0  0  0
    3.5631    0.2337   16.9924 H   0  0  0  0  0  0  0  0  0  0  0  0
    6.9785   -1.4015   18.6192 H   0  0  0  0  0  0  0  0  0  0  0  0
    7.0512   -1.5072   21.7328 C   0  0  0  0  0  0  0  0  0  0  0  0
    8.3288   -1.2376   22.5354 C   0  0  2  0  0  0  0  0  0  0  0  0
    8.3693   -2.0045   23.8504 C   0  0  0  0  0  0  0  0  0  0  0  0
    9.2696   -1.7684   24.4299 H   0  0  0  0  0  0  0  0  0  0  0  0
    7.4942   -1.7498   24.4608 H   0  0  0  0  0  0  0  0  0  0  0  0
    8.3439   -3.0825   23.6661 H   0  0  0  0  0  0  0  0  0  0  0  0
    9.1547   -1.5737   21.9073 H   0  0  0  0  0  0  0  0  0  0  0  0
    6.1963   -1.6926   22.4001 H   0  0  0  0  0  0  0  0  0  0  0  0
    7.1565   -2.3727   21.0695 H   0  0  0  0  0  0  0  0  0  0  0  0
    9.8595    0.8493   22.6074 C   0  0  0  0  0  0  0  0  0  0  0  0
   10.9157    0.1400   22.0201 C   0  0  0  0  0  0  0  0  0  0  0  0
   12.1828    0.6829   22.0326 C   0  0  0  0  0  0  0  0  0  0  0  0
   13.2014   -0.0303   21.5165 F   0  0  0  0  0  0  0  0  0  0  0  0
   12.4478    1.9326   22.5809 C   0  0  0  0  0  0  0  0  0  0  0  0
   11.3991    2.6756   23.0888 C   0  0  0  0  0  0  0  0  0  0  0  0
   10.1140    2.1338   23.1137 C   0  0  0  0  0  0  0  0  0  0  0  0
    8.9899    2.9569   23.6711 C   0  0  0  0  0  0  0  0  0  0  0  0
    9.0567    4.1790   23.7215 O   0  0  0  0  0  0  0  0  0  0  0  0
   11.5434    3.6838   23.4755 H   0  0  0  0  0  0  0  0  0  0  0  0
   13.4651    2.2977   22.5982 H   0  0  0  0  0  0  0  0  0  0  0  0
   10.7920   -0.8299   21.5528 H   0  0  0  0  0  0  0  0  0  0  0  0
    6.7229    0.5489   23.9910 H   0  0  0  0  0  0  0  0  0  0  0  0
    8.2945    0.3549   24.8050 H   0  0  0  0  0  0  0  0  0  0  0  0
    6.9156    4.0947   24.3740 H   0  0  0  0  0  0  0  0  0  0  0  0
    6.1676    3.0437   23.1862 H   0  0  0  0  0  0  0  0  0  0  0  0
    3.9078    1.5588   24.4194 H   0  0  0  0  0  0  0  0  0  0  0  0
    3.3079    1.2940   27.0798 H   0  0  0  0  0  0  0  0  0  0  0  0
    7.9439    3.4659   26.4106 H   0  0  0  0  0  0  0  0  0  0  0  0
    7.3388    3.0952   28.0416 H   0  0  0  0  0  0  0  0  0  0  0  0
    7.7651    5.5219   27.7490 H   0  0  0  0  0  0  0  0  0  0  0  0
    6.0588    5.2157   28.0917 H   0  0  0  0  0  0  0  0  0  0  0  0
    6.5884    5.6030   26.4383 H   0  0  0  0  0  0  0  0  0  0  0  0
  1  2  1  0
  2  3  1  0
  3  4  1  0
  4  5  2  0
  5  6  1  0
  6  7  2  0
  7  8  1  0
  8  9  1  0
  9 10  1  0
 11 10  1  1
 11 12  1  0
 12 13  2  0
 12 14  1  0
 14 15  1  0
 15 16  2  0
 16 17  1  0
 17 18  2  0
 18 19  1  0
 19 20  2  0
 20 21  1  0
 21 22  2  0
 22 23  1  0
 23 24  2  0
 23 25  1  0
 22 26  1  0
 21 27  1  0
 20 28  1  0
 18 29  1  0
 16 30  1  0
 14 31  1  0
 31 32  1  0
 32 33  1  0
 33 34  1  0
 33 35  1  0
 33 36  1  0
 32 37  1  6
 31 38  1  0
 31 39  1  0
 11 40  1  0
 40 41  2  0
 41 42  1  0
 42 43  1  0
 42 44  2  0
 44 45  1  0
 45 46  2  0
 46 47  1  0
 47 48  2  0
 45 49  1  0
 44 50  1  0
 41 51  1  0
 10 52  1  0
 10 53  1  0
  8 54  1  0
  8 55  1  0
  6 56  1  0
  5 57  1  0
  2 58  1  0
  2 59  1  0
  1 60  1  0
  1 61  1  0
  1 62  1  0
  7  3  1  0
 47  9  1  0
 32 11  1  0
 46 40  1  0
 24 15  1  0
 24 19  1  0
M  END
>  <cnnaffinities>  (44) 
[6.23085, 6.17229, 6.10269, 6.12792, 6.20632, 6.13889, 6.16649, 6.18299, 6.15179, 6.20469, 6.27501, 6.29913]

>  <score>  (44) 
6.23085

>  <index>  (44) 
43

>  <Smiles>  (44) 
C(C(n1nc(c(c1C(N1C([C@@]2(C(=O)N(c3c(nc(c4c(c(c(c(c34)[H])[H])[H])[H])[H])[H])C([C@@]2(C([H])([H])[H])[H])([H])[H])c2c(c(F)c(c(c2C1=O)[H])[H])[H])([H])[H])([H])[H])[H])[H])([H])[H])([H])([H])[H]

>  <h>  (44) 
<NA>

>  <Training>  (44) 
True

>  <Success>  (44) 
True

>  <enamine_searched>  (44) 
False

>  <enamine_id>  (44) 
nan

$$$$

     RDKit          3D

 56 60  0  0  0  0  0  0  0  0999 V2000
   13.6145    0.7520   22.6483 C   0  0  0  0  0  0  0  0  0  0  0  0
   13.2482   -0.6388   22.8036 N   0  0  0  0  0  0  0  0  0  0  0  0
   12.8633   -1.3381   21.7124 C   0  0  0  0  0  0  0  0  0  0  0  0
   13.0867   -1.0003   20.5660 O   0  0  0  0  0  0  0  0  0  0  0  0
   12.0624   -2.5705   21.9701 C   0  0  0  0  0  0  0  0  0  0  0  0
   10.7876   -2.3342   22.5987 N   0  0  0  0  0  0  0  0  0  0  0  0
    9.6243   -2.1460   21.7396 C   0  0  0  0  0  0  0  0  0  0  0  0
    8.4611   -1.3874   22.4404 C   0  0  2  0  0  0  0  0  0  0  0  0
    7.2186   -1.5700   21.5562 C   0  0  0  0  0  0  0  0  0  0  0  0
    6.6743   -2.6258   21.3036 O   0  0  0  0  0  0  0  0  0  0  0  0
    6.8087   -0.3424   21.0664 N   0  0  0  0  0  0  0  0  0  0  0  0
    5.8683   -0.2329   20.0134 C   0  0  0  0  0  0  0  0  0  0  0  0
    6.1020   -0.8187   18.7970 C   0  0  0  0  0  0  0  0  0  0  0  0
    5.3229   -0.6301   17.7030 N   0  0  0  0  0  0  0  0  0  0  0  0
    4.2684    0.1390   17.8298 C   0  0  0  0  0  0  0  0  0  0  0  0
    3.8989    0.7942   19.0392 C   0  0  0  0  0  0  0  0  0  0  0  0
    2.7296    1.5936   19.1508 C   0  0  0  0  0  0  0  0  0  0  0  0
    2.4013    2.1719   20.3463 C   0  0  0  0  0  0  0  0  0  0  0  0
    3.2367    2.0066   21.4765 C   0  0  0  0  0  0  0  0  0  0  0  0
    4.3824    1.2542   21.3875 C   0  0  0  0  0  0  0  0  0  0  0  0
    4.7286    0.6161   20.1690 C   0  0  0  0  0  0  0  0  0  0  0  0
    5.0357    1.1286   22.2461 H   0  0  0  0  0  0  0  0  0  0  0  0
    2.9686    2.4750   22.4200 H   0  0  0  0  0  0  0  0  0  0  0  0
    1.4952    2.7667   20.4415 H   0  0  0  0  0  0  0  0  0  0  0  0
    2.1135    1.7484   18.2679 H   0  0  0  0  0  0  0  0  0  0  0  0
    3.6400    0.2711   16.9469 H   0  0  0  0  0  0  0  0  0  0  0  0
    6.9589   -1.4736   18.6552 H   0  0  0  0  0  0  0  0  0  0  0  0
    7.8094    0.6952   21.2479 C   0  0  0  0  0  0  0  0  0  0  0  0
    8.6028    0.1805   22.4582 C   0  0  2  0  0  0  0  0  0  0  0  0
   10.0384    0.6744   22.5127 C   0  0  0  0  0  0  0  0  0  0  0  0
   10.1557    2.4500   22.7378 Cl  0  0  0  0  0  0  0  0  0  0  0  0
   10.5551    0.2229   23.3589 H   0  0  0  0  0  0  0  0  0  0  0  0
   10.5818    0.4410   21.5950 H   0  0  0  0  0  0  0  0  0  0  0  0
    8.0888    0.5290   23.3604 H   0  0  0  0  0  0  0  0  0  0  0  0
    7.3403    1.6690   21.4259 H   0  0  0  0  0  0  0  0  0  0  0  0
    8.4352    0.8111   20.3491 H   0  0  0  0  0  0  0  0  0  0  0  0
    8.2764   -1.9826   23.8379 C   0  0  0  0  0  0  0  0  0  0  0  0
    7.0566   -1.8894   24.5299 C   0  0  0  0  0  0  0  0  0  0  0  0
    6.9397   -2.3826   25.8239 C   0  0  0  0  0  0  0  0  0  0  0  0
    5.4340   -2.2308   26.6898 Cl  0  0  0  0  0  0  0  0  0  0  0  0
    8.0096   -3.0047   26.4615 C   0  0  0  0  0  0  0  0  0  0  0  0
    9.2105   -3.1010   25.7928 C   0  0  0  0  0  0  0  0  0  0  0  0
    9.3512   -2.5789   24.5122 C   0  0  0  0  0  0  0  0  0  0  0  0
   10.7074   -2.6627   23.9133 C   0  0  0  0  0  0  0  0  0  0  0  0
   11.7086   -2.9712   24.5557 O   0  0  0  0  0  0  0  0  0  0  0  0
   10.0758   -3.5694   26.2509 H   0  0  0  0  0  0  0  0  0  0  0  0
    7.9161   -3.3824   27.4728 H   0  0  0  0  0  0  0  0  0  0  0  0
    6.1772   -1.4464   24.0765 H   0  0  0  0  0  0  0  0  0  0  0  0
    9.9510   -1.6014   20.8457 H   0  0  0  0  0  0  0  0  0  0  0  0
    9.2575   -3.1227   21.3942 H   0  0  0  0  0  0  0  0  0  0  0  0
   11.8762   -2.9600   20.9754 H   0  0  0  0  0  0  0  0  0  0  0  0
   12.6456   -3.2342   22.6153 H   0  0  0  0  0  0  0  0  0  0  0  0
   13.0287   -1.0033   23.7241 H   0  0  0  0  0  0  0  0  0  0  0  0
   14.1637    1.0642   23.5377 H   0  0  0  0  0  0  0  0  0  0  0  0
   12.7275    1.3911   22.5089 H   0  0  0  0  0  0  0  0  0  0  0  0
   14.2436    0.8468   21.7587 H   0  0  0  0  0  0  0  0  0  0  0  0
  1  2  1  0
  2  3  1  0
  3  4  2  0
  3  5  1  0
  5  6  1  0
  6  7  1  0
  8  7  1  6
  8  9  1  0
  9 10  2  0
  9 11  1  0
 11 12  1  0
 12 13  2  0
 13 14  1  0
 14 15  2  0
 15 16  1  0
 16 17  2  0
 17 18  1  0
 18 19  2  0
 19 20  1  0
 20 21  2  0
 20 22  1  0
 19 23  1  0
 18 24  1  0
 17 25  1  0
 15 26  1  0
 13 27  1  0
 11 28  1  0
 28 29  1  0
 29 30  1  0
 30 31  1  0
 30 32  1  0
 30 33  1  0
 29 34  1  1
 28 35  1  0
 28 36  1  0
  8 37  1  0
 37 38  2  0
 38 39  1  0
 39 40  1  0
 39 41  2  0
 41 42  1  0
 42 43  2  0
 43 44  1  0
 44 45  2  0
 42 46  1  0
 41 47  1  0
 38 48  1  0
  7 49  1  0
  7 50  1  0
  5 51  1  0
  5 52  1  0
  2 53  1  0
  1 54  1  0
  1 55  1  0
  1 56  1  0
 44  6  1  0
 29  8  1  0
 43 37  1  0
 21 12  1  0
 21 16  1  0
M  END
>  <cnnaffinities>  (45) 
[6.49988, 6.42414, 6.20779, 6.10267]

>  <score>  (45) 
6.49988

>  <index>  (45) 
44

>  <Smiles>  (45) 
C(N(C(=O)C(N1C([C@@]2(C(=O)N(c3c(nc(c4c(c(c(c(c34)[H])[H])[H])[H])[H])[H])C([C@@]2(C(Cl)([H])[H])[H])([H])[H])c2c(c(Cl)c(c(c2C1=O)[H])[H])[H])([H])[H])([H])[H])[H])([H])([H])[H]

>  <h>  (45) 
<NA>

>  <Training>  (45) 
True

>  <Success>  (45) 
True

>  <enamine_searched>  (45) 
False

>  <enamine_id>  (45) 
nan

$$$$

     RDKit          3D

 60 64  0  0  0  0  0  0  0  0999 V2000
    5.9222    5.0340   20.8335 C   0  0  0  0  0  0  0  0  0  0  0  0
    7.0481    4.7039   21.7032 N   0  0  0  0  0  0  0  0  0  0  0  0
    6.7649    4.0594   22.8713 C   0  0  0  0  0  0  0  0  0  0  0  0
    5.6357    3.7064   23.1791 O   0  0  0  0  0  0  0  0  0  0  0  0
    7.9480    3.8206   23.8076 C   0  0  0  0  0  0  0  0  0  0  0  0
    8.7176    2.6692   23.3951 N   0  0  0  0  0  0  0  0  0  0  0  0
    8.1473    1.3535   23.6357 C   0  0  0  0  0  0  0  0  0  0  0  0
    8.5405    0.3515   22.5263 C   0  0  2  0  0  0  0  0  0  0  0  0
    7.7757    0.7004   21.2315 C   0  0  0  0  0  0  0  0  0  0  0  0
    7.9095    1.6899   20.5431 O   0  0  0  0  0  0  0  0  0  0  0  0
    6.8640   -0.2986   20.9761 N   0  0  0  0  0  0  0  0  0  0  0  0
    5.8995   -0.1478   19.9501 C   0  0  0  0  0  0  0  0  0  0  0  0
    6.0871   -0.7820   18.7510 C   0  0  0  0  0  0  0  0  0  0  0  0
    5.2646   -0.6512   17.6838 N   0  0  0  0  0  0  0  0  0  0  0  0
    4.2044    0.1076   17.8323 C   0  0  0  0  0  0  0  0  0  0  0  0
    3.8650    0.7823   19.0409 C   0  0  0  0  0  0  0  0  0  0  0  0
    2.6841    1.5623   19.1678 C   0  0  0  0  0  0  0  0  0  0  0  0
    2.3636    2.1584   20.3561 C   0  0  0  0  0  0  0  0  0  0  0  0
    3.2341    2.0460   21.4648 C   0  0  0  0  0  0  0  0  0  0  0  0
    4.3962    1.3213   21.3617 C   0  0  0  0  0  0  0  0  0  0  0  0
    4.7358    0.6572   20.1455 C   0  0  0  0  0  0  0  0  0  0  0  0
    5.0617    1.2579   22.2190 H   0  0  0  0  0  0  0  0  0  0  0  0
    2.9996    2.5575   22.3943 H   0  0  0  0  0  0  0  0  0  0  0  0
    1.4410    2.7251   20.4532 H   0  0  0  0  0  0  0  0  0  0  0  0
    2.0515    1.6846   18.2961 H   0  0  0  0  0  0  0  0  0  0  0  0
    3.5330    0.1956   16.9776 H   0  0  0  0  0  0  0  0  0  0  0  0
    6.9524   -1.4281   18.6090 H   0  0  0  0  0  0  0  0  0  0  0  0
    6.7933   -1.3318   21.9878 C   0  0  0  0  0  0  0  0  0  0  0  0
    8.0649   -1.1082   22.8147 C   0  0  2  0  0  0  0  0  0  0  0  0
    7.9140   -1.5503   24.2679 C   0  0  0  0  0  0  0  0  0  0  0  0
    6.7911   -0.9333   24.8587 O   0  0  0  0  0  0  0  0  0  0  0  0
    6.6692   -1.2348   26.2265 C   0  0  0  0  0  0  0  0  0  0  0  0
    6.5632   -2.3184   26.3969 H   0  0  0  0  0  0  0  0  0  0  0  0
    7.5369   -0.8727   26.8021 H   0  0  0  0  0  0  0  0  0  0  0  0
    5.7710   -0.7313   26.5906 H   0  0  0  0  0  0  0  0  0  0  0  0
    7.7945   -2.6473   24.3061 H   0  0  0  0  0  0  0  0  0  0  0  0
    8.8291   -1.3021   24.8336 H   0  0  0  0  0  0  0  0  0  0  0  0
    8.8425   -1.7541   22.4086 H   0  0  0  0  0  0  0  0  0  0  0  0
    5.9009   -1.2274   22.6171 H   0  0  0  0  0  0  0  0  0  0  0  0
    6.7713   -2.3223   21.5188 H   0  0  0  0  0  0  0  0  0  0  0  0
   10.0412    0.4604   22.3054 C   0  0  0  0  0  0  0  0  0  0  0  0
   10.7371   -0.5658   21.6570 C   0  0  0  0  0  0  0  0  0  0  0  0
   12.1075   -0.4884   21.5088 C   0  0  0  0  0  0  0  0  0  0  0  0
   12.9274   -1.8150   20.7399 Cl  0  0  0  0  0  0  0  0  0  0  0  0
   12.8219    0.6572   21.8604 C   0  0  0  0  0  0  0  0  0  0  0  0
   12.1253    1.7154   22.4090 C   0  0  0  0  0  0  0  0  0  0  0  0
   10.7532    1.6173   22.6354 C   0  0  0  0  0  0  0  0  0  0  0  0
   10.0525    2.8336   23.1510 C   0  0  0  0  0  0  0  0  0  0  0  0
   10.6325    3.8975   23.3048 O   0  0  0  0  0  0  0  0  0  0  0  0
   12.6014    2.6619   22.6427 H   0  0  0  0  0  0  0  0  0  0  0  0
   13.8888    0.7157   21.6713 H   0  0  0  0  0  0  0  0  0  0  0  0
   10.2194   -1.4192   21.2314 H   0  0  0  0  0  0  0  0  0  0  0  0
    8.5007    0.9632   24.5970 H   0  0  0  0  0  0  0  0  0  0  0  0
    7.0614    1.4534   23.6820 H   0  0  0  0  0  0  0  0  0  0  0  0
    8.6415    4.6653   23.8380 H   0  0  0  0  0  0  0  0  0  0  0  0
    7.5355    3.6544   24.8051 H   0  0  0  0  0  0  0  0  0  0  0  0
    7.9718    4.6162   21.2918 H   0  0  0  0  0  0  0  0  0  0  0  0
    5.3551    4.1094   20.6318 H   0  0  0  0  0  0  0  0  0  0  0  0
    5.2405    5.7415   21.3279 H   0  0  0  0  0  0  0  0  0  0  0  0
    6.2530    5.4999   19.8933 H   0  0  0  0  0  0  0  0  0  0  0  0
  1  2  1  0
  2  3  1  0
  3  4  2  0
  3  5  1  0
  5  6  1  0
  6  7  1  0
  8  7  1  1
  8  9  1  0
  9 10  2  0
  9 11  1  0
 11 12  1  0
 12 13  2  0
 13 14  1  0
 14 15  2  0
 15 16  1  0
 16 17  2  0
 17 18  1  0
 18 19  2  0
 19 20  1  0
 20 21  2  0
 20 22  1  0
 19 23  1  0
 18 24  1  0
 17 25  1  0
 15 26  1  0
 13 27  1  0
 11 28  1  0
 28 29  1  0
 29 30  1  0
 30 31  1  0
 31 32  1  0
 32 33  1  0
 32 34  1  0
 32 35  1  0
 30 36  1  0
 30 37  1  0
 29 38  1  6
 28 39  1  0
 28 40  1  0
  8 41  1  0
 41 42  2  0
 42 43  1  0
 43 44  1  0
 43 45  2  0
 45 46  1  0
 46 47  2  0
 47 48  1  0
 48 49  2  0
 46 50  1  0
 45 51  1  0
 42 52  1  0
  7 53  1  0
  7 54  1  0
  5 55  1  0
  5 56  1  0
  2 57  1  0
  1 58  1  0
  1 59  1  0
  1 60  1  0
 48  6  1  0
 29  8  1  0
 47 41  1  0
 21 12  1  0
 21 16  1  0
M  END
>  <cnnaffinities>  (46) 
[6.24037, 6.46391, 6.10145, 6.27414, 6.28945, 5.95661, 5.89049]

>  <score>  (46) 
6.24037

>  <index>  (46) 
45

>  <Smiles>  (46) 
C(N(C(=O)C(N1C([C@@]2(C(=O)N(c3c(nc(c4c(c(c(c(c34)[H])[H])[H])[H])[H])[H])C([C@@]2(C(OC([H])([H])[H])([H])[H])[H])([H])[H])c2c(c(Cl)c(c(c2C1=O)[H])[H])[H])([H])[H])([H])[H])[H])([H])([H])[H]

>  <h>  (46) 
<NA>

>  <Training>  (46) 
True

>  <Success>  (46) 
True

>  <enamine_searched>  (46) 
False

>  <enamine_id>  (46) 
nan

$$$$

     RDKit          3D

 64 68  0  0  0  0  0  0  0  0999 V2000
   12.7905    2.1037   21.8096 C   0  0  0  0  0  0  0  0  0  0  0  0
   11.9849    2.4623   23.0433 C   0  0  0  0  0  0  0  0  0  0  0  0
   10.2224    2.2362   22.7991 S   0  0  0  0  0  0  0  0  0  0  0  0
    9.5521    2.5135   24.0576 O   0  0  0  0  0  0  0  0  0  0  0  0
    9.8581    2.9640   21.5869 O   0  0  0  0  0  0  0  0  0  0  0  0
   10.0083    0.5717   22.4983 N   0  0  0  0  0  0  0  0  0  0  0  0
    8.5792    0.1681   22.4582 C   0  0  1  0  0  0  0  0  0  0  0  0
    7.7805    0.7396   21.2727 C   0  0  0  0  0  0  0  0  0  0  0  0
    6.7701   -0.2767   21.0412 N   0  0  0  0  0  0  0  0  0  0  0  0
    5.8455   -0.1704   19.9813 C   0  0  0  0  0  0  0  0  0  0  0  0
    6.0717   -0.7912   18.7824 C   0  0  0  0  0  0  0  0  0  0  0  0
    5.2840   -0.6299   17.6916 N   0  0  0  0  0  0  0  0  0  0  0  0
    4.2241    0.1331   17.8207 C   0  0  0  0  0  0  0  0  0  0  0  0
    3.8539    0.7957   19.0275 C   0  0  0  0  0  0  0  0  0  0  0  0
    2.6772    1.5782   19.1503 C   0  0  0  0  0  0  0  0  0  0  0  0
    2.3571    2.1617   20.3459 C   0  0  0  0  0  0  0  0  0  0  0  0
    3.2050    2.0215   21.4674 C   0  0  0  0  0  0  0  0  0  0  0  0
    4.3604    1.2893   21.3686 C   0  0  0  0  0  0  0  0  0  0  0  0
    4.6968    0.6518   20.1468 C   0  0  0  0  0  0  0  0  0  0  0  0
    5.0253    1.1826   22.2195 H   0  0  0  0  0  0  0  0  0  0  0  0
    2.9462    2.4998   22.4075 H   0  0  0  0  0  0  0  0  0  0  0  0
    1.4472    2.7466   20.4433 H   0  0  0  0  0  0  0  0  0  0  0  0
    2.0535    1.7203   18.2745 H   0  0  0  0  0  0  0  0  0  0  0  0
    3.5869    0.2449   16.9439 H   0  0  0  0  0  0  0  0  0  0  0  0
    6.9313   -1.4467   18.6578 H   0  0  0  0  0  0  0  0  0  0  0  0
    7.0784   -1.5098   21.5650 C   0  0  0  0  0  0  0  0  0  0  0  0
    6.4727   -2.5370   21.3394 O   0  0  0  0  0  0  0  0  0  0  0  0
    8.3311   -1.3737   22.4147 C   0  0  1  0  0  0  0  0  0  0  0  0
    9.4152   -2.1877   21.6735 C   0  0  0  0  0  0  0  0  0  0  0  0
   10.5836   -2.3981   22.4959 N   0  0  0  0  0  0  0  0  0  0  0  0
   11.8690   -2.0370   21.9140 C   0  0  0  0  0  0  0  0  0  0  0  0
   12.9530   -1.8022   22.9615 C   0  0  0  0  0  0  0  0  0  0  0  0
   14.0389   -2.3567   22.9767 O   0  0  0  0  0  0  0  0  0  0  0  0
   12.6010   -0.8756   23.8829 N   0  0  0  0  0  0  0  0  0  0  0  0
   13.6049   -0.4269   24.8094 C   0  0  0  0  0  0  0  0  0  0  0  0
   14.3484    0.1818   24.2901 H   0  0  0  0  0  0  0  0  0  0  0  0
   13.1394    0.1430   25.6126 H   0  0  0  0  0  0  0  0  0  0  0  0
   14.1286   -1.2830   25.2383 H   0  0  0  0  0  0  0  0  0  0  0  0
   11.6930   -0.4275   23.8291 H   0  0  0  0  0  0  0  0  0  0  0  0
   12.1813   -2.7358   21.1349 H   0  0  0  0  0  0  0  0  0  0  0  0
   11.7282   -1.0641   21.4137 H   0  0  0  0  0  0  0  0  0  0  0  0
   10.4525   -3.0226   23.7217 C   0  0  0  0  0  0  0  0  0  0  0  0
   11.3365   -3.6655   24.2607 O   0  0  0  0  0  0  0  0  0  0  0  0
    9.1494   -2.7386   24.4111 C   0  0  0  0  0  0  0  0  0  0  0  0
    8.9743   -3.2155   25.7105 C   0  0  0  0  0  0  0  0  0  0  0  0
    7.8155   -2.9447   26.4171 C   0  0  0  0  0  0  0  0  0  0  0  0
    6.8237   -2.1827   25.8034 C   0  0  0  0  0  0  0  0  0  0  0  0
    5.3470   -1.8468   26.6628 Cl  0  0  0  0  0  0  0  0  0  0  0  0
    6.9830   -1.6988   24.5167 C   0  0  0  0  0  0  0  0  0  0  0  0
    8.1535   -1.9714   23.7971 C   0  0  0  0  0  0  0  0  0  0  0  0
    6.1888   -1.1255   24.0532 H   0  0  0  0  0  0  0  0  0  0  0  0
    7.6747   -3.3027   27.4317 H   0  0  0  0  0  0  0  0  0  0  0  0
    9.7734   -3.7896   26.1674 H   0  0  0  0  0  0  0  0  0  0  0  0
    8.9579   -3.1441   21.3751 H   0  0  0  0  0  0  0  0  0  0  0  0
    9.7041   -1.6799   20.7500 H   0  0  0  0  0  0  0  0  0  0  0  0
    8.4066    0.8892   20.3804 H   0  0  0  0  0  0  0  0  0  0  0  0
    7.3306    1.7067   21.5092 H   0  0  0  0  0  0  0  0  0  0  0  0
    8.1326    0.5411   23.3850 H   0  0  0  0  0  0  0  0  0  0  0  0
   10.4252    0.3604   21.5920 H   0  0  0  0  0  0  0  0  0  0  0  0
   12.0855    3.5243   23.2907 H   0  0  0  0  0  0  0  0  0  0  0  0
   12.2843    1.8817   23.9177 H   0  0  0  0  0  0  0  0  0  0  0  0
   12.3781    2.6289   20.9458 H   0  0  0  0  0  0  0  0  0  0  0  0
   13.8368    2.3947   21.9467 H   0  0  0  0  0  0  0  0  0  0  0  0
   12.7809    1.0278   21.6063 H   0  0  0  0  0  0  0  0  0  0  0  0
  1  2  1  0
  2  3  1  0
  3  4  2  0
  3  5  2  0
  3  6  1  0
  6  7  1  0
  7  8  1  0
  8  9  1  0
  9 10  1  0
 10 11  2  0
 11 12  1  0
 12 13  2  0
 13 14  1  0
 14 15  2  0
 15 16  1  0
 16 17  2  0
 17 18  1  0
 18 19  2  0
 18 20  1  0
 17 21  1  0
 16 22  1  0
 15 23  1  0
 13 24  1  0
 11 25  1  0
  9 26  1  0
 26 27  2  0
 26 28  1  0
 28 29  1  6
 29 30  1  0
 30 31  1  0
 31 32  1  0
 32 33  2  0
 32 34  1  0
 34 35  1  0
 35 36  1  0
 35 37  1  0
 35 38  1  0
 34 39  1  0
 31 40  1  0
 31 41  1  0
 30 42  1  0
 42 43  2  0
 42 44  1  0
 44 45  2  0
 45 46  1  0
 46 47  2  0
 47 48  1  0
 47 49  1  0
 49 50  2  0
 49 51  1  0
 46 52  1  0
 45 53  1  0
 29 54  1  0
 29 55  1  0
  8 56  1  0
  8 57  1  0
  7 58  1  1
  6 59  1  0
  2 60  1  0
  2 61  1  0
  1 62  1  0
  1 63  1  0
  1 64  1  0
 28  7  1  0
 50 44  1  0
 19 10  1  0
 50 28  1  0
 19 14  1  0
M  END
>  <cnnaffinities>  (47) 
[6.49035, 6.2547, 6.1751, 6.2928]

>  <score>  (47) 
6.49035

>  <index>  (47) 
46

>  <Smiles>  (47) 
C(C(S(=O)(=O)N([C@]1(C(N(c2c(nc(c3c(c(c(c(c23)[H])[H])[H])[H])[H])[H])C(=O)[C@]21C(N(C(C(=O)N(C([H])([H])[H])[H])([H])[H])C(=O)c1c(c(c(Cl)c(c21)[H])[H])[H])([H])[H])([H])[H])[H])[H])([H])[H])([H])([H])[H]

>  <h>  (47) 
<NA>

>  <Training>  (47) 
True

>  <Success>  (47) 
True

>  <enamine_searched>  (47) 
False

>  <enamine_id>  (47) 
nan

$$$$

     RDKit          3D

 56 60  0  0  0  0  0  0  0  0999 V2000
    5.9745    5.0316   20.8417 C   0  0  0  0  0  0  0  0  0  0  0  0
    7.0687    4.6748   21.7377 N   0  0  0  0  0  0  0  0  0  0  0  0
    6.7566    4.0253   22.8900 C   0  0  0  0  0  0  0  0  0  0  0  0
    5.6153    3.6865   23.1747 O   0  0  0  0  0  0  0  0  0  0  0  0
    7.9134    3.7520   23.8486 C   0  0  0  0  0  0  0  0  0  0  0  0
    8.6992    2.6210   23.4098 N   0  0  0  0  0  0  0  0  0  0  0  0
    8.1633    1.2902   23.6297 C   0  0  0  0  0  0  0  0  0  0  0  0
    8.5644    0.3189   22.4984 C   0  0  2  0  0  0  0  0  0  0  0  0
    7.7925    0.6890   21.2169 C   0  0  0  0  0  0  0  0  0  0  0  0
    7.9291    1.6856   20.5383 O   0  0  0  0  0  0  0  0  0  0  0  0
    6.8689   -0.2988   20.9656 N   0  0  0  0  0  0  0  0  0  0  0  0
    5.9004   -0.1474   19.9464 C   0  0  0  0  0  0  0  0  0  0  0  0
    6.0847   -0.7852   18.7490 C   0  0  0  0  0  0  0  0  0  0  0  0
    5.2614   -0.6547   17.6828 N   0  0  0  0  0  0  0  0  0  0  0  0
    4.2015    0.1047   17.8315 C   0  0  0  0  0  0  0  0  0  0  0  0
    3.8635    0.7794   19.0408 C   0  0  0  0  0  0  0  0  0  0  0  0
    2.6828    1.5591   19.1690 C   0  0  0  0  0  0  0  0  0  0  0  0
    2.3637    2.1558   20.3577 C   0  0  0  0  0  0  0  0  0  0  0  0
    3.2350    2.0436   21.4655 C   0  0  0  0  0  0  0  0  0  0  0  0
    4.3968    1.3177   21.3617 C   0  0  0  0  0  0  0  0  0  0  0  0
    4.7353    0.6545   20.1453 C   0  0  0  0  0  0  0  0  0  0  0  0
    5.0612    1.2534   22.2189 H   0  0  0  0  0  0  0  0  0  0  0  0
    3.0024    2.5561   22.3952 H   0  0  0  0  0  0  0  0  0  0  0  0
    1.4415    2.7236   20.4549 H   0  0  0  0  0  0  0  0  0  0  0  0
    2.0493    1.6820   18.2977 H   0  0  0  0  0  0  0  0  0  0  0  0
    3.5297    0.1950   16.9771 H   0  0  0  0  0  0  0  0  0  0  0  0
    6.9482   -1.4342   18.6089 H   0  0  0  0  0  0  0  0  0  0  0  0
    6.7951   -1.3278   21.9771 C   0  0  0  0  0  0  0  0  0  0  0  0
    8.0894   -1.1392   22.7820 C   0  0  2  0  0  0  0  0  0  0  0  0
    7.9301   -1.5466   24.2461 C   0  0  0  0  0  0  0  0  0  0  0  0
    7.6504   -2.6035   24.3214 H   0  0  0  0  0  0  0  0  0  0  0  0
    7.1396   -0.9605   24.7302 H   0  0  0  0  0  0  0  0  0  0  0  0
    8.8546   -1.4047   24.8178 H   0  0  0  0  0  0  0  0  0  0  0  0
    8.8391   -1.7965   22.3426 H   0  0  0  0  0  0  0  0  0  0  0  0
    5.9087   -1.2068   22.6201 H   0  0  0  0  0  0  0  0  0  0  0  0
    6.7346   -2.3165   21.5098 H   0  0  0  0  0  0  0  0  0  0  0  0
   10.0618    0.4448   22.2834 C   0  0  0  0  0  0  0  0  0  0  0  0
   10.7823   -0.5800   21.6621 C   0  0  0  0  0  0  0  0  0  0  0  0
   12.1506   -0.4640   21.5379 C   0  0  0  0  0  0  0  0  0  0  0  0
   12.8344   -1.4996   21.0247 F   0  0  0  0  0  0  0  0  0  0  0  0
   12.8432    0.6995   21.8559 C   0  0  0  0  0  0  0  0  0  0  0  0
   12.1189    1.7499   22.3823 C   0  0  0  0  0  0  0  0  0  0  0  0
   10.7491    1.6194   22.6106 C   0  0  0  0  0  0  0  0  0  0  0  0
   10.0230    2.8177   23.1318 C   0  0  0  0  0  0  0  0  0  0  0  0
   10.5761    3.8980   23.2662 O   0  0  0  0  0  0  0  0  0  0  0  0
   12.5715    2.7089   22.6113 H   0  0  0  0  0  0  0  0  0  0  0  0
   13.9073    0.7643   21.6532 H   0  0  0  0  0  0  0  0  0  0  0  0
   10.2949   -1.4549   21.2428 H   0  0  0  0  0  0  0  0  0  0  0  0
    7.0736    1.3669   23.6948 H   0  0  0  0  0  0  0  0  0  0  0  0
    8.5435    0.8878   24.5778 H   0  0  0  0  0  0  0  0  0  0  0  0
    7.4751    3.5405   24.8268 H   0  0  0  0  0  0  0  0  0  0  0  0
    8.6066    4.5955   23.9251 H   0  0  0  0  0  0  0  0  0  0  0  0
    8.0028    4.5869   21.3518 H   0  0  0  0  0  0  0  0  0  0  0  0
    5.3932    4.1151   20.6414 H   0  0  0  0  0  0  0  0  0  0  0  0
    5.3077    5.7583   21.3259 H   0  0  0  0  0  0  0  0  0  0  0  0
    6.3329    5.4918   19.9107 H   0  0  0  0  0  0  0  0  0  0  0  0
  1  2  1  0
  2  3  1  0
  3  4  2  0
  3  5  1  0
  5  6  1  0
  6  7  1  0
  8  7  1  1
  8  9  1  0
  9 10  2  0
  9 11  1  0
 11 12  1  0
 12 13  2  0
 13 14  1  0
 14 15  2  0
 15 16  1  0
 16 17  2  0
 17 18  1  0
 18 19  2  0
 19 20  1  0
 20 21  2  0
 20 22  1  0
 19 23  1  0
 18 24  1  0
 17 25  1  0
 15 26  1  0
 13 27  1  0
 11 28  1  0
 28 29  1  0
 29 30  1  0
 30 31  1  0
 30 32  1  0
 30 33  1  0
 29 34  1  6
 28 35  1  0
 28 36  1  0
  8 37  1  0
 37 38  2  0
 38 39  1  0
 39 40  1  0
 39 41  2  0
 41 42  1  0
 42 43  2  0
 43 44  1  0
 44 45  2  0
 42 46  1  0
 41 47  1  0
 38 48  1  0
  7 49  1  0
  7 50  1  0
  5 51  1  0
  5 52  1  0
  2 53  1  0
  1 54  1  0
  1 55  1  0
  1 56  1  0
 44  6  1  0
 29  8  1  0
 43 37  1  0
 21 12  1  0
 21 16  1  0
M  END
>  <cnnaffinities>  (48) 
[6.00977, 6.07412, 5.84172, 5.86359]

>  <score>  (48) 
6.00977

>  <index>  (48) 
47

>  <Smiles>  (48) 
C(N(C(=O)C(N1C([C@@]2(C(=O)N(c3c(nc(c4c(c(c(c(c34)[H])[H])[H])[H])[H])[H])C([C@@]2(C([H])([H])[H])[H])([H])[H])c2c(c(F)c(c(c2C1=O)[H])[H])[H])([H])[H])([H])[H])[H])([H])([H])[H]

>  <h>  (48) 
<NA>

>  <Training>  (48) 
True

>  <Success>  (48) 
True

>  <enamine_searched>  (48) 
False

>  <enamine_id>  (48) 
nan

$$$$

     RDKit          3D

 41 43  0  0  0  0  0  0  0  0999 V2000
    6.8838    4.0415   24.9625 C   0  0  0  0  0  0  0  0  0  0  0  0
    7.4370    2.9325   24.0908 C   0  0  1  0  0  0  0  0  0  0  0  0
    8.4388    3.4603   23.0595 C   0  0  0  0  0  0  0  0  0  0  0  0
    9.3287    2.3714   22.4357 C   0  0  0  0  0  0  0  0  0  0  0  0
    8.6780    1.0701   22.2345 N   0  0  0  0  0  0  0  0  0  0  0  0
    7.8150    0.9503   21.1694 C   0  0  0  0  0  0  0  0  0  0  0  0
    7.7776    1.8017   20.3001 O   0  0  0  0  0  0  0  0  0  0  0  0
    6.9113   -0.3002   21.0539 C   0  0  0  0  0  0  0  0  0  0  0  0
    5.8679   -0.1780   19.9723 C   0  0  0  0  0  0  0  0  0  0  0  0
    6.0357   -0.8029   18.7647 C   0  0  0  0  0  0  0  0  0  0  0  0
    5.2182   -0.6791   17.6844 N   0  0  0  0  0  0  0  0  0  0  0  0
    4.1585    0.0803   17.8281 C   0  0  0  0  0  0  0  0  0  0  0  0
    3.8213    0.7456   19.0393 C   0  0  0  0  0  0  0  0  0  0  0  0
    2.6364    1.5126   19.1699 C   0  0  0  0  0  0  0  0  0  0  0  0
    2.3351    2.1527   20.3416 C   0  0  0  0  0  0  0  0  0  0  0  0
    3.2188    2.0581   21.4376 C   0  0  0  0  0  0  0  0  0  0  0  0
    4.3715    1.3144   21.3394 C   0  0  0  0  0  0  0  0  0  0  0  0
    4.7025    0.6277   20.1407 C   0  0  0  0  0  0  0  0  0  0  0  0
    5.0402    1.2585   22.1943 H   0  0  0  0  0  0  0  0  0  0  0  0
    2.9800    2.5830   22.3575 H   0  0  0  0  0  0  0  0  0  0  0  0
    1.4279    2.7466   20.4264 H   0  0  0  0  0  0  0  0  0  0  0  0
    1.9787    1.6058   18.3144 H   0  0  0  0  0  0  0  0  0  0  0  0
    3.5047    0.2012   16.9604 H   0  0  0  0  0  0  0  0  0  0  0  0
    6.8788   -1.4752   18.6143 H   0  0  0  0  0  0  0  0  0  0  0  0
    6.4209   -0.5235   22.0101 H   0  0  0  0  0  0  0  0  0  0  0  0
    7.5570   -1.1559   20.8145 H   0  0  0  0  0  0  0  0  0  0  0  0
    8.6853    0.1776   23.3812 C   0  0  0  0  0  0  0  0  0  0  0  0
    7.7824    0.6125   24.5386 C   0  0  0  0  0  0  0  0  0  0  0  0
    7.9988    1.9458   24.9467 O   0  0  0  0  0  0  0  0  0  0  0  0
    7.9729   -0.0183   25.4186 H   0  0  0  0  0  0  0  0  0  0  0  0
    6.7242    0.4762   24.2691 H   0  0  0  0  0  0  0  0  0  0  0  0
    8.4341   -0.8381   23.0635 H   0  0  0  0  0  0  0  0  0  0  0  0
    9.7124    0.1442   23.7528 H   0  0  0  0  0  0  0  0  0  0  0  0
    9.7224    2.7197   21.4790 H   0  0  0  0  0  0  0  0  0  0  0  0
   10.1824    2.1980   23.0926 H   0  0  0  0  0  0  0  0  0  0  0  0
    9.0767    4.2259   23.5271 H   0  0  0  0  0  0  0  0  0  0  0  0
    7.8796    3.9692   22.2656 H   0  0  0  0  0  0  0  0  0  0  0  0
    6.6023    2.4743   23.5463 H   0  0  0  0  0  0  0  0  0  0  0  0
    6.1354    3.6413   25.6522 H   0  0  0  0  0  0  0  0  0  0  0  0
    6.4075    4.8089   24.3440 H   0  0  0  0  0  0  0  0  0  0  0  0
    7.6833    4.5029   25.5486 H   0  0  0  0  0  0  0  0  0  0  0  0
  1  2  1  0
  2  3  1  0
  3  4  1  0
  4  5  1  0
  5  6  1  0
  6  7  2  0
  6  8  1  0
  8  9  1  0
  9 10  2  0
 10 11  1  0
 11 12  2  0
 12 13  1  0
 13 14  2  0
 14 15  1  0
 15 16  2  0
 16 17  1  0
 17 18  2  0
 17 19  1  0
 16 20  1  0
 15 21  1  0
 14 22  1  0
 12 23  1  0
 10 24  1  0
  8 25  1  0
  8 26  1  0
  5 27  1  0
 27 28  1  0
 28 29  1  0
 28 30  1  0
 28 31  1  0
 27 32  1  0
 27 33  1  0
  4 34  1  0
  4 35  1  0
  3 36  1  0
  3 37  1  0
  2 38  1  6
  1 39  1  0
  1 40  1  0
  1 41  1  0
 29  2  1  0
 18  9  1  0
 18 13  1  0
M  END
>  <cnnaffinities>  (49) 
[4.80842, 4.80771, 4.98231, 5.08843, 4.74552, 4.8048, 4.94955]

>  <score>  (49) 
4.80842

>  <index>  (49) 
48

>  <Smiles>  (49) 
C([C@]1(C(C(N(C(=O)C(c2c(nc(c3c(c(c(c(c23)[H])[H])[H])[H])[H])[H])([H])[H])C(C(O1)([H])[H])([H])[H])([H])[H])([H])[H])[H])([H])([H])[H]

>  <h>  (49) 
<NA>

>  <Training>  (49) 
True

>  <Success>  (49) 
True

>  <enamine_searched>  (49) 
False

>  <enamine_id>  (49) 
nan

$$$$

     RDKit          3D

 42 45  0  0  0  0  0  0  0  0999 V2000
   11.8321   -2.6666   23.0206 C   0  0  0  0  0  0  0  0  0  0  0  0
   10.3981   -2.6388   23.2878 N   0  0  0  0  0  0  0  0  0  0  0  0
    9.4350   -2.5601   22.2066 C   0  0  0  0  0  0  0  0  0  0  0  0
    8.3250   -1.5596   22.5705 C   0  0  1  0  0  0  0  0  0  0  0  0
    7.2602   -1.5429   21.4733 C   0  0  0  0  0  0  0  0  0  0  0  0
    6.7704   -2.5664   21.0346 O   0  0  0  0  0  0  0  0  0  0  0  0
    6.8291   -0.3133   21.0076 N   0  0  0  0  0  0  0  0  0  0  0  0
    5.8639   -0.1928   19.9742 C   0  0  0  0  0  0  0  0  0  0  0  0
    6.0470   -0.8187   18.7682 C   0  0  0  0  0  0  0  0  0  0  0  0
    5.2290   -0.6667   17.6982 N   0  0  0  0  0  0  0  0  0  0  0  0
    4.1669    0.0858   17.8379 C   0  0  0  0  0  0  0  0  0  0  0  0
    3.8222    0.7461   19.0478 C   0  0  0  0  0  0  0  0  0  0  0  0
    2.6355    1.5081   19.1828 C   0  0  0  0  0  0  0  0  0  0  0  0
    2.3268    2.1231   20.3622 C   0  0  0  0  0  0  0  0  0  0  0  0
    3.2043    2.0135   21.4639 C   0  0  0  0  0  0  0  0  0  0  0  0
    4.3636    1.2829   21.3588 C   0  0  0  0  0  0  0  0  0  0  0  0
    4.7013    0.6249   20.1520 C   0  0  0  0  0  0  0  0  0  0  0  0
    5.0257    1.2017   22.2162 H   0  0  0  0  0  0  0  0  0  0  0  0
    2.9579    2.5178   22.3935 H   0  0  0  0  0  0  0  0  0  0  0  0
    1.4137    2.7099   20.4560 H   0  0  0  0  0  0  0  0  0  0  0  0
    1.9789    1.6091   18.3246 H   0  0  0  0  0  0  0  0  0  0  0  0
    3.5124    0.1963   16.9667 H   0  0  0  0  0  0  0  0  0  0  0  0
    6.8951   -1.4806   18.6194 H   0  0  0  0  0  0  0  0  0  0  0  0
    7.1442    0.5367   21.4517 H   0  0  0  0  0  0  0  0  0  0  0  0
    7.7315   -1.9148   23.9208 C   0  0  0  0  0  0  0  0  0  0  0  0
    6.4195   -1.5750   24.2527 C   0  0  0  0  0  0  0  0  0  0  0  0
    5.9254   -1.8626   25.5137 C   0  0  0  0  0  0  0  0  0  0  0  0
    4.2911   -1.4176   25.9066 Cl  0  0  0  0  0  0  0  0  0  0  0  0
    6.7138   -2.4879   26.4746 C   0  0  0  0  0  0  0  0  0  0  0  0
    8.0192   -2.8158   26.1440 C   0  0  0  0  0  0  0  0  0  0  0  0
    8.5370   -2.5415   24.8745 C   0  0  0  0  0  0  0  0  0  0  0  0
    9.9836   -2.8427   24.5814 C   0  0  0  0  0  0  0  0  0  0  0  0
   10.7646   -3.2127   25.4432 O   0  0  0  0  0  0  0  0  0  0  0  0
    8.6496   -3.2795   26.8925 H   0  0  0  0  0  0  0  0  0  0  0  0
    6.2995   -2.6983   27.4577 H   0  0  0  0  0  0  0  0  0  0  0  0
    5.7821   -1.0749   23.5302 H   0  0  0  0  0  0  0  0  0  0  0  0
    8.7910   -0.5682   22.6457 H   0  0  0  0  0  0  0  0  0  0  0  0
    9.9641   -2.2307   21.3096 H   0  0  0  0  0  0  0  0  0  0  0  0
    8.9985   -3.5409   21.9714 H   0  0  0  0  0  0  0  0  0  0  0  0
   12.0117   -2.5655   21.9469 H   0  0  0  0  0  0  0  0  0  0  0  0
   12.3538   -1.8544   23.5322 H   0  0  0  0  0  0  0  0  0  0  0  0
   12.3067   -3.5823   23.3754 H   0  0  0  0  0  0  0  0  0  0  0  0
  1  2  1  0
  2  3  1  0
  3  4  1  0
  4  5  1  0
  5  6  2  0
  5  7  1  0
  7  8  1  0
  8  9  2  0
  9 10  1  0
 10 11  2  0
 11 12  1  0
 12 13  2  0
 13 14  1  0
 14 15  2  0
 15 16  1  0
 16 17  2  0
 16 18  1  0
 15 19  1  0
 14 20  1  0
 13 21  1  0
 11 22  1  0
  9 23  1  0
  7 24  1  0
  4 25  1  0
 25 26  2  0
 26 27  1  0
 27 28  1  0
 27 29  2  0
 29 30  1  0
 30 31  2  0
 31 32  1  0
 32 33  2  0
 30 34  1  0
 29 35  1  0
 26 36  1  0
  4 37  1  1
  3 38  1  0
  3 39  1  0
  1 40  1  0
  1 41  1  0
  1 42  1  0
 32  2  1  0
 17  8  1  0
 31 25  1  0
 17 12  1  0
M  END
>  <cnnaffinities>  (50) 
[5.77799, 5.52019]

>  <score>  (50) 
5.77799

>  <index>  (50) 
49

>  <Smiles>  (50) 
C(N1C([C@@](C(=O)N(c2c(nc(c3c(c(c(c(c23)[H])[H])[H])[H])[H])[H])[H])(c2c(c(Cl)c(c(c2C1=O)[H])[H])[H])[H])([H])[H])([H])([H])[H]

>  <h>  (50) 
<NA>

>  <Training>  (50) 
True

>  <Success>  (50) 
True

>  <enamine_searched>  (50) 
False

>  <enamine_id>  (50) 
nan

$$$$

     RDKit          3D

 38 41  0  0  0  0  0  0  0  0999 V2000
    5.3242   -1.8081   22.1240 O   0  0  0  0  0  0  0  0  0  0  0  0
    6.4914   -1.4662   22.0555 C   0  0  0  0  0  0  0  0  0  0  0  0
    6.9027   -0.3589   21.0565 C   0  0  0  0  0  0  0  0  0  0  0  0
    5.8699   -0.1738   19.9708 C   0  0  0  0  0  0  0  0  0  0  0  0
    6.0295   -0.8077   18.7673 C   0  0  0  0  0  0  0  0  0  0  0  0
    5.2145   -0.6835   17.6873 N   0  0  0  0  0  0  0  0  0  0  0  0
    4.1585    0.0818   17.8284 C   0  0  0  0  0  0  0  0  0  0  0  0
    3.8176    0.7421   19.0416 C   0  0  0  0  0  0  0  0  0  0  0  0
    2.6281    1.5027   19.1720 C   0  0  0  0  0  0  0  0  0  0  0  0
    2.3162    2.1241   20.3506 C   0  0  0  0  0  0  0  0  0  0  0  0
    3.1911    2.0157   21.4519 C   0  0  0  0  0  0  0  0  0  0  0  0
    4.3509    1.2834   21.3531 C   0  0  0  0  0  0  0  0  0  0  0  0
    4.6936    0.6177   20.1458 C   0  0  0  0  0  0  0  0  0  0  0  0
    5.0027    1.1984   22.2154 H   0  0  0  0  0  0  0  0  0  0  0  0
    2.9402    2.5206   22.3795 H   0  0  0  0  0  0  0  0  0  0  0  0
    1.4044    2.7095   20.4381 H   0  0  0  0  0  0  0  0  0  0  0  0
    1.9755    1.6008   18.3142 H   0  0  0  0  0  0  0  0  0  0  0  0
    3.5056    0.2019   16.9609 H   0  0  0  0  0  0  0  0  0  0  0  0
    6.8677   -1.4861   18.6228 H   0  0  0  0  0  0  0  0  0  0  0  0
    7.8644   -0.6046   20.5811 H   0  0  0  0  0  0  0  0  0  0  0  0
    7.0469    0.5918   21.5888 H   0  0  0  0  0  0  0  0  0  0  0  0
    7.4672   -2.0571   22.8297 N   0  0  0  0  0  0  0  0  0  0  0  0
    7.2395   -3.3969   23.3783 C   0  0  0  0  0  0  0  0  0  0  0  0
    7.6139   -3.4705   24.8563 C   0  0  0  0  0  0  0  0  0  0  0  0
    8.9623   -2.8563   25.0686 C   0  0  0  0  0  0  0  0  0  0  0  0
    9.9880   -3.1506   26.4331 S   0  0  0  0  0  0  0  0  0  0  0  0
   11.1577   -2.0263   25.8431 C   0  0  0  0  0  0  0  0  0  0  0  0
   10.7751   -1.4659   24.6596 C   0  0  0  0  0  0  0  0  0  0  0  0
    9.5069   -1.9504   24.2141 C   0  0  0  0  0  0  0  0  0  0  0  0
    8.8148   -1.5203   22.9475 C   0  0  0  0  0  0  0  0  0  0  0  0
    9.4501   -1.7930   22.0903 H   0  0  0  0  0  0  0  0  0  0  0  0
    8.7783   -0.4263   22.9467 H   0  0  0  0  0  0  0  0  0  0  0  0
   11.3759   -0.7339   24.1255 H   0  0  0  0  0  0  0  0  0  0  0  0
   12.0646   -1.8423   26.4049 H   0  0  0  0  0  0  0  0  0  0  0  0
    6.8711   -2.9258   25.4510 H   0  0  0  0  0  0  0  0  0  0  0  0
    7.5881   -4.5065   25.2092 H   0  0  0  0  0  0  0  0  0  0  0  0
    7.8345   -4.1340   22.8216 H   0  0  0  0  0  0  0  0  0  0  0  0
    6.1898   -3.6568   23.2379 H   0  0  0  0  0  0  0  0  0  0  0  0
  1  2  2  0
  2  3  1  0
  3  4  1  0
  4  5  2  0
  5  6  1  0
  6  7  2  0
  7  8  1  0
  8  9  2  0
  9 10  1  0
 10 11  2  0
 11 12  1  0
 12 13  2  0
 12 14  1  0
 11 15  1  0
 10 16  1  0
  9 17  1  0
  7 18  1  0
  5 19  1  0
  3 20  1  0
  3 21  1  0
  2 22  1  0
 22 23  1  0
 23 24  1  0
 24 25  1  0
 25 26  1  0
 26 27  1  0
 27 28  2  0
 28 29  1  0
 29 30  1  0
 30 31  1  0
 30 32  1  0
 28 33  1  0
 27 34  1  0
 24 35  1  0
 24 36  1  0
 23 37  1  0
 23 38  1  0
 13  4  1  0
 30 22  1  0
 13  8  1  0
 29 25  2  0
M  END
>  <cnnaffinities>  (51) 
[5.09864, 5.09269, 5.05003, 5.10686, 5.23147]

>  <score>  (51) 
5.09864

>  <index>  (51) 
50

>  <Smiles>  (51) 
O=C(C(c1c(nc(c2c(c(c(c(c12)[H])[H])[H])[H])[H])[H])([H])[H])N1C(C(c2sc(c(c2C1([H])[H])[H])[H])([H])[H])([H])[H]

>  <h>  (51) 
<NA>

>  <Training>  (51) 
True

>  <Success>  (51) 
True

>  <enamine_searched>  (51) 
False

>  <enamine_id>  (51) 
nan

$$$$

     RDKit          3D

 67 73  0  0  0  0  0  0  0  0999 V2000
    7.0764    4.4742   29.1749 C   0  0  0  0  0  0  0  0  0  0  0  0
    6.6725    3.7380   27.9472 C   0  0  0  0  0  0  0  0  0  0  0  0
    5.8488    2.7505   27.8531 N   0  0  0  0  0  0  0  0  0  0  0  0
    5.7900    2.4188   26.5040 N   0  0  0  0  0  0  0  0  0  0  0  0
    6.5898    3.2197   25.8905 C   0  0  0  0  0  0  0  0  0  0  0  0
    6.8328    3.2836   24.4089 C   0  0  0  0  0  0  0  0  0  0  0  0
    7.9197    2.4515   23.9308 N   0  0  0  0  0  0  0  0  0  0  0  0
    7.7683    1.0005   23.9065 C   0  0  0  0  0  0  0  0  0  0  0  0
    8.4162    0.3718   22.6322 C   0  0  2  0  0  0  0  0  0  0  0  0
    7.6287    0.7840   21.3687 C   0  0  0  0  0  0  0  0  0  0  0  0
    7.6544    1.8441   20.7783 O   0  0  0  0  0  0  0  0  0  0  0  0
    6.8498   -0.2814   20.9804 N   0  0  0  0  0  0  0  0  0  0  0  0
    5.8923   -0.1490   19.9581 C   0  0  0  0  0  0  0  0  0  0  0  0
    6.0830   -0.7855   18.7594 C   0  0  0  0  0  0  0  0  0  0  0  0
    5.2724   -0.6504   17.6838 N   0  0  0  0  0  0  0  0  0  0  0  0
    4.2150    0.1137   17.8343 C   0  0  0  0  0  0  0  0  0  0  0  0
    3.8725    0.7833   19.0439 C   0  0  0  0  0  0  0  0  0  0  0  0
    2.6992    1.5722   19.1546 C   0  0  0  0  0  0  0  0  0  0  0  0
    2.3585    2.1495   20.3458 C   0  0  0  0  0  0  0  0  0  0  0  0
    3.1949    2.0035   21.4743 C   0  0  0  0  0  0  0  0  0  0  0  0
    4.3564    1.2798   21.3846 C   0  0  0  0  0  0  0  0  0  0  0  0
    4.7233    0.6465   20.1585 C   0  0  0  0  0  0  0  0  0  0  0  0
    4.9989    1.1934   22.2580 H   0  0  0  0  0  0  0  0  0  0  0  0
    2.9147    2.4735   22.4124 H   0  0  0  0  0  0  0  0  0  0  0  0
    1.4383    2.7181   20.4350 H   0  0  0  0  0  0  0  0  0  0  0  0
    2.0887    1.7084   18.2686 H   0  0  0  0  0  0  0  0  0  0  0  0
    3.5480    0.2093   16.9786 H   0  0  0  0  0  0  0  0  0  0  0  0
    6.9618   -1.4170   18.6325 H   0  0  0  0  0  0  0  0  0  0  0  0
    6.9872   -1.4645   21.7899 C   0  0  0  0  0  0  0  0  0  0  0  0
    8.2726   -1.1779   22.5740 C   0  0  2  0  0  0  0  0  0  0  0  0
    8.3552   -1.9372   23.9071 C   0  0  0  0  0  0  0  0  0  0  0  0
    8.4382   -3.3790   23.7610 N   0  0  0  0  0  0  0  0  0  0  0  0
    7.3826   -4.2205   23.5842 C   0  0  0  0  0  0  0  0  0  0  0  0
    6.0494   -3.9311   23.9487 C   0  0  0  0  0  0  0  0  0  0  0  0
    5.1037   -4.8962   23.6529 C   0  0  0  0  0  0  0  0  0  0  0  0
    5.3955   -6.0560   23.0525 N   0  0  0  0  0  0  0  0  0  0  0  0
    6.6834   -6.2286   22.7847 C   0  0  0  0  0  0  0  0  0  0  0  0
    7.6932   -5.4072   23.0326 N   0  0  0  0  0  0  0  0  0  0  0  0
    6.9509   -7.1623   22.2896 H   0  0  0  0  0  0  0  0  0  0  0  0
    4.0509   -4.7339   23.8979 H   0  0  0  0  0  0  0  0  0  0  0  0
    5.7559   -3.0006   24.4281 H   0  0  0  0  0  0  0  0  0  0  0  0
    9.2945   -3.7745   23.3914 H   0  0  0  0  0  0  0  0  0  0  0  0
    7.4783   -1.7060   24.5212 H   0  0  0  0  0  0  0  0  0  0  0  0
    9.2352   -1.6095   24.4718 H   0  0  0  0  0  0  0  0  0  0  0  0
    9.0845   -1.5353   21.9370 H   0  0  0  0  0  0  0  0  0  0  0  0
    7.0709   -2.3556   21.1574 H   0  0  0  0  0  0  0  0  0  0  0  0
    6.1155   -1.5983   22.4488 H   0  0  0  0  0  0  0  0  0  0  0  0
    9.8441    0.8707   22.5622 C   0  0  0  0  0  0  0  0  0  0  0  0
   10.8784    0.1080   22.0115 C   0  0  0  0  0  0  0  0  0  0  0  0
   12.1792    0.5656   22.0800 C   0  0  0  0  0  0  0  0  0  0  0  0
   13.4375   -0.4743   21.5003 Cl  0  0  0  0  0  0  0  0  0  0  0  0
   12.4830    1.8382   22.5530 C   0  0  0  0  0  0  0  0  0  0  0  0
   11.4506    2.6474   22.9856 C   0  0  0  0  0  0  0  0  0  0  0  0
   10.1510    2.1564   23.0285 C   0  0  0  0  0  0  0  0  0  0  0  0
    9.0930    3.0626   23.5656 C   0  0  0  0  0  0  0  0  0  0  0  0
    9.2701    4.2688   23.6722 O   0  0  0  0  0  0  0  0  0  0  0  0
   11.6135    3.6708   23.2963 H   0  0  0  0  0  0  0  0  0  0  0  0
   13.5087    2.1822   22.5396 H   0  0  0  0  0  0  0  0  0  0  0  0
   10.7106   -0.8234   21.4809 H   0  0  0  0  0  0  0  0  0  0  0  0
    6.6976    0.7645   23.9647 H   0  0  0  0  0  0  0  0  0  0  0  0
    8.2606    0.5632   24.7882 H   0  0  0  0  0  0  0  0  0  0  0  0
    5.8988    2.9545   23.9402 H   0  0  0  0  0  0  0  0  0  0  0  0
    7.0422    4.3140   24.1000 H   0  0  0  0  0  0  0  0  0  0  0  0
    7.1936    4.0895   26.7426 O   0  0  0  0  0  0  0  0  0  0  0  0
    6.1930    4.6708   29.7846 H   0  0  0  0  0  0  0  0  0  0  0  0
    7.5772    5.4144   28.9332 H   0  0  0  0  0  0  0  0  0  0  0  0
    7.7434    3.8459   29.7736 H   0  0  0  0  0  0  0  0  0  0  0  0
  1  2  1  0
  2  3  2  0
  3  4  1  0
  4  5  2  0
  5  6  1  0
  6  7  1  0
  7  8  1  0
  9  8  1  1
  9 10  1  0
 10 11  2  0
 10 12  1  0
 12 13  1  0
 13 14  2  0
 14 15  1  0
 15 16  2  0
 16 17  1  0
 17 18  2  0
 18 19  1  0
 19 20  2  0
 20 21  1  0
 21 22  2  0
 21 23  1  0
 20 24  1  0
 19 25  1  0
 18 26  1  0
 16 27  1  0
 14 28  1  0
 12 29  1  0
 29 30  1  0
 30 31  1  0
 31 32  1  0
 32 33  1  0
 33 34  2  0
 34 35  1  0
 35 36  2  0
 36 37  1  0
 37 38  2  0
 37 39  1  0
 35 40  1  0
 34 41  1  0
 32 42  1  0
 31 43  1  0
 31 44  1  0
 30 45  1  6
 29 46  1  0
 29 47  1  0
  9 48  1  0
 48 49  2  0
 49 50  1  0
 50 51  1  0
 50 52  2  0
 52 53  1  0
 53 54  2  0
 54 55  1  0
 55 56  2  0
 53 57  1  0
 52 58  1  0
 49 59  1  0
  8 60  1  0
  8 61  1  0
  6 62  1  0
  6 63  1  0
  5 64  1  0
  1 65  1  0
  1 66  1  0
  1 67  1  0
 64  2  1  0
 55  7  1  0
 30  9  1  0
 38 33  1  0
 54 48  1  0
 22 13  1  0
 22 17  1  0
M  END
>  <cnnaffinities>  (52) 
[6.81634, 6.81537]

>  <score>  (52) 
6.81634

>  <index>  (52) 
51

>  <Smiles>  (52) 
C(c1nnc(C(N2C([C@@]3(C(=O)N(c4c(nc(c5c(c(c(c(c45)[H])[H])[H])[H])[H])[H])C([C@@]3(C(N(c3c(c(nc(n3)[H])[H])[H])[H])([H])[H])[H])([H])[H])c3c(c(Cl)c(c(c3C2=O)[H])[H])[H])([H])[H])([H])[H])o1)([H])([H])[H]

>  <h>  (52) 
<NA>

>  <Training>  (52) 
True

>  <Success>  (52) 
True

>  <enamine_searched>  (52) 
False

>  <enamine_id>  (52) 
nan

$$$$

     RDKit          3D

 66 71  0  0  0  0  0  0  0  0999 V2000
    9.0504   -7.8074   23.9287 C   0  0  0  0  0  0  0  0  0  0  0  0
    7.8983   -6.9161   23.9886 N   0  0  0  0  0  0  0  0  0  0  0  0
    8.0835   -5.5730   23.9110 C   0  0  0  0  0  0  0  0  0  0  0  0
    9.1860   -5.0764   24.0837 O   0  0  0  0  0  0  0  0  0  0  0  0
    6.8449   -4.7101   23.5575 C   0  0  0  0  0  0  0  0  0  0  0  0
    7.0519   -3.3249   23.9194 N   0  0  0  0  0  0  0  0  0  0  0  0
    7.9740   -2.5249   23.1273 C   0  0  0  0  0  0  0  0  0  0  0  0
    7.5561   -1.0215   23.1084 C   0  0  2  0  0  0  0  0  0  0  0  0
    6.3377   -0.9205   22.1523 C   0  0  0  0  0  0  0  0  0  0  0  0
    5.2219   -1.3438   22.3385 O   0  0  0  0  0  0  0  0  0  0  0  0
    6.7547   -0.3186   20.9784 N   0  0  0  0  0  0  0  0  0  0  0  0
    5.8917   -0.0836   19.8994 C   0  0  0  0  0  0  0  0  0  0  0  0
    6.1792   -0.5861   18.6565 C   0  0  0  0  0  0  0  0  0  0  0  0
    5.3844   -0.4454   17.5704 N   0  0  0  0  0  0  0  0  0  0  0  0
    4.2737    0.2374   17.7283 C   0  0  0  0  0  0  0  0  0  0  0  0
    3.8884    0.8623   18.9505 C   0  0  0  0  0  0  0  0  0  0  0  0
    2.7090    1.6456   19.0621 C   0  0  0  0  0  0  0  0  0  0  0  0
    2.3827    2.2451   20.2479 C   0  0  0  0  0  0  0  0  0  0  0  0
    3.2262    2.1153   21.3726 C   0  0  0  0  0  0  0  0  0  0  0  0
    4.3790    1.3814   21.2870 C   0  0  0  0  0  0  0  0  0  0  0  0
    4.7215    0.7150   20.0758 C   0  0  0  0  0  0  0  0  0  0  0  0
    5.0304    1.3028   22.1499 H   0  0  0  0  0  0  0  0  0  0  0  0
    2.9635    2.6038   22.3069 H   0  0  0  0  0  0  0  0  0  0  0  0
    1.4821    2.8463   20.3299 H   0  0  0  0  0  0  0  0  0  0  0  0
    2.0909    1.7849   18.1809 H   0  0  0  0  0  0  0  0  0  0  0  0
    3.6172    0.3226   16.8624 H   0  0  0  0  0  0  0  0  0  0  0  0
    7.0880   -1.1664   18.5103 H   0  0  0  0  0  0  0  0  0  0  0  0
    8.1901   -0.1489   20.9019 C   0  0  0  0  0  0  0  0  0  0  0  0
    8.5888   -0.1100   22.3742 C   0  0  2  0  0  0  0  0  0  0  0  0
   10.0532   -0.4324   22.5673 C   0  0  0  0  0  0  0  0  0  0  0  0
   10.4571   -0.2907   23.9508 N   0  0  0  0  0  0  0  0  0  0  0  0
   11.7071   -0.7213   24.2792 C   0  0  0  0  0  0  0  0  0  0  0  0
   12.1153   -0.8750   25.6148 C   0  0  0  0  0  0  0  0  0  0  0  0
   13.4044   -1.3119   25.8031 C   0  0  0  0  0  0  0  0  0  0  0  0
   14.2489   -1.5944   24.7996 N   0  0  0  0  0  0  0  0  0  0  0  0
   13.7563   -1.4068   23.5871 C   0  0  0  0  0  0  0  0  0  0  0  0
   12.5418   -0.9722   23.2646 N   0  0  0  0  0  0  0  0  0  0  0  0
   14.4098   -1.6343   22.7427 H   0  0  0  0  0  0  0  0  0  0  0  0
   13.8015   -1.4471   26.8074 H   0  0  0  0  0  0  0  0  0  0  0  0
   11.4473   -0.6803   26.4485 H   0  0  0  0  0  0  0  0  0  0  0  0
    9.7402   -0.4222   24.6545 H   0  0  0  0  0  0  0  0  0  0  0  0
   10.2671   -1.4575   22.2287 H   0  0  0  0  0  0  0  0  0  0  0  0
   10.6863    0.2239   21.9634 H   0  0  0  0  0  0  0  0  0  0  0  0
    8.4198    0.9146   22.7153 H   0  0  0  0  0  0  0  0  0  0  0  0
    8.6819   -0.9839   20.3796 H   0  0  0  0  0  0  0  0  0  0  0  0
    8.4362    0.7773   20.3775 H   0  0  0  0  0  0  0  0  0  0  0  0
    7.2497   -0.5764   24.5312 C   0  0  0  0  0  0  0  0  0  0  0  0
    7.2063    0.7803   24.9040 C   0  0  0  0  0  0  0  0  0  0  0  0
    6.9492    1.1443   26.2168 C   0  0  0  0  0  0  0  0  0  0  0  0
    6.8980    2.8341   26.6289 Cl  0  0  0  0  0  0  0  0  0  0  0  0
    6.7308    0.1947   27.2142 C   0  0  0  0  0  0  0  0  0  0  0  0
    6.7462   -1.1384   26.8494 C   0  0  0  0  0  0  0  0  0  0  0  0
    6.9690   -1.5218   25.5280 C   0  0  0  0  0  0  0  0  0  0  0  0
    6.8207   -2.9785   25.2230 C   0  0  0  0  0  0  0  0  0  0  0  0
    6.4842   -3.7879   26.0759 O   0  0  0  0  0  0  0  0  0  0  0  0
    6.5593   -1.9260   27.5722 H   0  0  0  0  0  0  0  0  0  0  0  0
    6.5299    0.5012   28.2372 H   0  0  0  0  0  0  0  0  0  0  0  0
    7.3628    1.5669   24.1742 H   0  0  0  0  0  0  0  0  0  0  0  0
    7.9558   -2.9228   22.1113 H   0  0  0  0  0  0  0  0  0  0  0  0
    8.9929   -2.6563   23.5185 H   0  0  0  0  0  0  0  0  0  0  0  0
    6.6393   -4.7423   22.4754 H   0  0  0  0  0  0  0  0  0  0  0  0
    5.9301   -5.0577   24.0534 H   0  0  0  0  0  0  0  0  0  0  0  0
    6.9634   -7.2808   23.9607 H   0  0  0  0  0  0  0  0  0  0  0  0
    9.4993   -7.8148   22.9313 H   0  0  0  0  0  0  0  0  0  0  0  0
    9.8363   -7.4700   24.6127 H   0  0  0  0  0  0  0  0  0  0  0  0
    8.7481   -8.8292   24.1668 H   0  0  0  0  0  0  0  0  0  0  0  0
  1  2  1  0
  2  3  1  0
  3  4  2  0
  3  5  1  0
  5  6  1  0
  6  7  1  0
  8  7  1  1
  8  9  1  0
  9 10  2  0
  9 11  1  0
 11 12  1  0
 12 13  2  0
 13 14  1  0
 14 15  2  0
 15 16  1  0
 16 17  2  0
 17 18  1  0
 18 19  2  0
 19 20  1  0
 20 21  2  0
 20 22  1  0
 19 23  1  0
 18 24  1  0
 17 25  1  0
 15 26  1  0
 13 27  1  0
 11 28  1  0
 28 29  1  0
 29 30  1  0
 30 31  1  0
 31 32  1  0
 32 33  2  0
 33 34  1  0
 34 35  2  0
 35 36  1  0
 36 37  2  0
 36 38  1  0
 34 39  1  0
 33 40  1  0
 31 41  1  0
 30 42  1  0
 30 43  1  0
 29 44  1  1
 28 45  1  0
 28 46  1  0
  8 47  1  0
 47 48  2  0
 48 49  1  0
 49 50  1  0
 49 51  2  0
 51 52  1  0
 52 53  2  0
 53 54  1  0
 54 55  2  0
 52 56  1  0
 51 57  1  0
 48 58  1  0
  7 59  1  0
  7 60  1  0
  5 61  1  0
  5 62  1  0
  2 63  1  0
  1 64  1  0
  1 65  1  0
  1 66  1  0
 54  6  1  0
 29  8  1  0
 37 32  1  0
 53 47  1  0
 21 12  1  0
 21 16  1  0
M  END
>  <cnnaffinities>  (53) 
[6.82731, 6.81256]

>  <score>  (53) 
6.82731

>  <index>  (53) 
52

>  <Smiles>  (53) 
C(N(C(=O)C(N1C([C@@]2(C(=O)N(c3c(nc(c4c(c(c(c(c34)[H])[H])[H])[H])[H])[H])C([C@@]2(C(N(c2c(c(nc(n2)[H])[H])[H])[H])([H])[H])[H])([H])[H])c2c(c(Cl)c(c(c2C1=O)[H])[H])[H])([H])[H])([H])[H])[H])([H])([H])[H]

>  <h>  (53) 
<NA>

>  <Training>  (53) 
True

>  <Success>  (53) 
True

>  <enamine_searched>  (53) 
False

>  <enamine_id>  (53) 
nan

$$$$

     RDKit          3D

 77 84  0  0  0  0  0  0  0  0999 V2000
    9.2624    4.1751   23.7015 O   0  0  0  0  0  0  0  0  0  0  0  0
    9.0976    2.9645   23.6284 C   0  0  0  0  0  0  0  0  0  0  0  0
   10.1629    2.0632   23.0681 C   0  0  0  0  0  0  0  0  0  0  0  0
   11.4686    2.5511   23.0171 C   0  0  0  0  0  0  0  0  0  0  0  0
   12.5013    1.7457   22.5697 C   0  0  0  0  0  0  0  0  0  0  0  0
   12.1689    0.4895   22.0637 C   0  0  0  0  0  0  0  0  0  0  0  0
   13.4415   -0.5640   21.5115 Cl  0  0  0  0  0  0  0  0  0  0  0  0
   10.8673    0.0236   22.0151 C   0  0  0  0  0  0  0  0  0  0  0  0
    9.8405    0.7814   22.5960 C   0  0  0  0  0  0  0  0  0  0  0  0
    8.4052    0.3033   22.6567 C   0  0  1  0  0  0  0  0  0  0  0  0
    7.7721    0.9153   23.9459 C   0  0  0  0  0  0  0  0  0  0  0  0
    7.9561    2.3548   24.0779 N   0  0  0  0  0  0  0  0  0  0  0  0
    6.7639    3.1889   24.2580 C   0  0  0  0  0  0  0  0  0  0  0  0
    6.1377    3.0226   25.6361 C   0  0  0  0  0  0  0  0  0  0  0  0
    7.1487    3.4603   26.6579 N   0  0  0  0  0  4  0  0  0  0  0  0
    6.8304    3.3789   28.1318 C   0  0  0  0  0  0  0  0  0  0  0  0
    7.0506    4.9013   28.3383 C   0  0  0  0  0  0  0  0  0  0  0  0
    7.8900    5.4634   29.4955 C   0  0  0  0  0  0  0  0  0  0  0  0
    6.7988    6.2641   29.9518 O   0  0  0  0  0  0  0  0  0  0  0  0
    5.9505    5.7945   28.9008 C   0  0  0  0  0  0  0  0  0  0  0  0
    5.6301    6.6103   28.2394 H   0  0  0  0  0  0  0  0  0  0  0  0
    5.0701    5.2652   29.2864 H   0  0  0  0  0  0  0  0  0  0  0  0
    8.1935    4.7236   30.2509 H   0  0  0  0  0  0  0  0  0  0  0  0
    8.7618    6.0740   29.2193 H   0  0  0  0  0  0  0  0  0  0  0  0
    7.4135    4.9700   26.8276 C   0  0  0  0  0  0  0  0  0  0  0  0
    6.7319    5.5567   26.2160 H   0  0  0  0  0  0  0  0  0  0  0  0
    8.4477    5.1893   26.5693 H   0  0  0  0  0  0  0  0  0  0  0  0
    5.8196    3.0217   28.3187 H   0  0  0  0  0  0  0  0  0  0  0  0
    7.5528    2.7360   28.6305 H   0  0  0  0  0  0  0  0  0  0  0  0
    8.0153    2.9592   26.3995 H   0  0  0  0  0  0  0  0  0  0  0  0
    5.2346    3.6284   25.7450 H   0  0  0  0  0  0  0  0  0  0  0  0
    5.8784    1.9813   25.8417 H   0  0  0  0  0  0  0  0  0  0  0  0
    6.0455    2.9608   23.4589 H   0  0  0  0  0  0  0  0  0  0  0  0
    7.0871    4.2218   24.1176 H   0  0  0  0  0  0  0  0  0  0  0  0
    8.2173    0.4222   24.8171 H   0  0  0  0  0  0  0  0  0  0  0  0
    6.6993    0.7022   23.9608 H   0  0  0  0  0  0  0  0  0  0  0  0
    7.6214    0.7607   21.4059 C   0  0  0  0  0  0  0  0  0  0  0  0
    7.6466    1.8480   20.8648 O   0  0  0  0  0  0  0  0  0  0  0  0
    6.8408   -0.2902   20.9873 N   0  0  0  0  0  0  0  0  0  0  0  0
    5.8943   -0.1409   19.9582 C   0  0  0  0  0  0  0  0  0  0  0  0
    6.0907   -0.7736   18.7594 C   0  0  0  0  0  0  0  0  0  0  0  0
    5.2812   -0.6368   17.6841 N   0  0  0  0  0  0  0  0  0  0  0  0
    4.2214    0.1250   17.8272 C   0  0  0  0  0  0  0  0  0  0  0  0
    3.8739    0.7906   19.0374 C   0  0  0  0  0  0  0  0  0  0  0  0
    2.7015    1.5826   19.1478 C   0  0  0  0  0  0  0  0  0  0  0  0
    2.3581    2.1577   20.3400 C   0  0  0  0  0  0  0  0  0  0  0  0
    3.1868    1.9951   21.4737 C   0  0  0  0  0  0  0  0  0  0  0  0
    4.3438    1.2626   21.3860 C   0  0  0  0  0  0  0  0  0  0  0  0
    4.7204    0.6470   20.1551 C   0  0  0  0  0  0  0  0  0  0  0  0
    4.9816    1.1533   22.2596 H   0  0  0  0  0  0  0  0  0  0  0  0
    2.9071    2.4623   22.4135 H   0  0  0  0  0  0  0  0  0  0  0  0
    1.4440    2.7396   20.4256 H   0  0  0  0  0  0  0  0  0  0  0  0
    2.0943    1.7270   18.2605 H   0  0  0  0  0  0  0  0  0  0  0  0
    3.5608    0.2310   16.9659 H   0  0  0  0  0  0  0  0  0  0  0  0
    6.9650   -1.4090   18.6203 H   0  0  0  0  0  0  0  0  0  0  0  0
    6.9520   -1.4870   21.7823 C   0  0  0  0  0  0  0  0  0  0  0  0
    8.2258   -1.2382   22.5866 C   0  0  2  0  0  0  0  0  0  0  0  0
    8.2508   -2.0073   23.9125 C   0  0  0  0  0  0  0  0  0  0  0  0
    8.2592   -3.4406   23.7094 N   0  0  0  0  0  0  0  0  0  0  0  0
    7.1596   -4.2343   23.7443 C   0  0  0  0  0  0  0  0  0  0  0  0
    7.3660   -5.5329   23.4263 N   0  0  0  0  0  0  0  0  0  0  0  0
    6.2928   -6.3072   23.4484 C   0  0  0  0  0  0  0  0  0  0  0  0
    5.0238   -5.8435   23.7844 C   0  0  0  0  0  0  0  0  0  0  0  0
    4.9347   -4.4990   24.1062 C   0  0  0  0  0  0  0  0  0  0  0  0
    5.9850   -3.6773   24.0875 N   0  0  0  0  0  0  0  0  0  0  0  0
    3.9812   -4.0535   24.3915 H   0  0  0  0  0  0  0  0  0  0  0  0
    4.1596   -6.4956   23.7904 H   0  0  0  0  0  0  0  0  0  0  0  0
    6.4557   -7.3535   23.1824 H   0  0  0  0  0  0  0  0  0  0  0  0
    9.1177   -3.9015   23.4530 H   0  0  0  0  0  0  0  0  0  0  0  0
    7.3599   -1.7617   24.5005 H   0  0  0  0  0  0  0  0  0  0  0  0
    9.1406   -1.7185   24.4885 H   0  0  0  0  0  0  0  0  0  0  0  0
    9.0439   -1.6059   21.9650 H   0  0  0  0  0  0  0  0  0  0  0  0
    7.0362   -2.3737   21.1490 H   0  0  0  0  0  0  0  0  0  0  0  0
    6.0769   -1.6273   22.4284 H   0  0  0  0  0  0  0  0  0  0  0  0
   10.6969   -0.9272   21.5196 H   0  0  0  0  0  0  0  0  0  0  0  0
   13.5444    2.0550   22.6130 H   0  0  0  0  0  0  0  0  0  0  0  0
   11.6455    3.5739   23.3336 H   0  0  0  0  0  0  0  0  0  0  0  0
  1  2  2  0
  2  3  1  0
  3  4  2  0
  4  5  1  0
  5  6  2  0
  6  7  1  0
  6  8  1  0
  8  9  2  0
  9 10  1  0
 10 11  1  1
 11 12  1  0
 12 13  1  0
 13 14  1  0
 14 15  1  0
 15 16  1  0
 16 17  1  0
 17 18  1  0
 18 19  1  0
 19 20  1  0
 20 21  1  0
 20 22  1  0
 18 23  1  0
 18 24  1  0
 17 25  1  0
 25 26  1  0
 25 27  1  0
 16 28  1  0
 16 29  1  0
 15 30  1  0
 14 31  1  0
 14 32  1  0
 13 33  1  0
 13 34  1  0
 11 35  1  0
 11 36  1  0
 10 37  1  0
 37 38  2  0
 37 39  1  0
 39 40  1  0
 40 41  2  0
 41 42  1  0
 42 43  2  0
 43 44  1  0
 44 45  2  0
 45 46  1  0
 46 47  2  0
 47 48  1  0
 48 49  2  0
 48 50  1  0
 47 51  1  0
 46 52  1  0
 45 53  1  0
 43 54  1  0
 41 55  1  0
 39 56  1  0
 56 57  1  0
 57 58  1  0
 58 59  1  0
 59 60  1  0
 60 61  2  0
 61 62  1  0
 62 63  2  0
 63 64  1  0
 64 65  2  0
 64 66  1  0
 63 67  1  0
 62 68  1  0
 59 69  1  0
 58 70  1  0
 58 71  1  0
 57 72  1  6
 56 73  1  0
 56 74  1  0
  8 75  1  0
  5 76  1  0
  4 77  1  0
 12  2  1  0
 25 15  1  0
 49 40  1  0
 65 60  1  0
  9  3  1  0
 57 10  1  0
 20 17  1  0
 49 44  1  0
M  CHG  1  15   1
M  END
>  <cnnaffinities>  (54) 
[6.76437]

>  <score>  (54) 
6.76437

>  <index>  (54) 
53

>  <Smiles>  (54) 
O=C1c2c(c(c(Cl)c(c2[C@@]2(C(N1C(C([N+]1(C(C3(C(OC3([H])[H])([H])[H])C1([H])[H])([H])[H])[H])([H])[H])([H])[H])([H])[H])C(=O)N(c1c(nc(c3c(c(c(c(c13)[H])[H])[H])[H])[H])[H])C([C@@]2(C(N(c1nc(c(c(n1)[H])[H])[H])[H])([H])[H])[H])([H])[H])[H])[H])[H]

>  <h>  (54) 
<NA>

>  <Training>  (54) 
True

>  <Success>  (54) 
True

>  <enamine_searched>  (54) 
False

>  <enamine_id>  (54) 
nan

$$$$

     RDKit          3D

 66 71  0  0  0  0  0  0  0  0999 V2000
    7.1871    6.3696   21.7976 C   0  0  0  0  0  0  0  0  0  0  0  0
    7.3886    5.5382   22.9670 N   0  0  0  0  0  0  0  0  0  0  0  0
    6.7358    4.3408   23.0355 C   0  0  0  0  0  0  0  0  0  0  0  0
    5.8900    3.9774   22.2334 O   0  0  0  0  0  0  0  0  0  0  0  0
    7.1666    3.4709   24.2182 C   0  0  0  0  0  0  0  0  0  0  0  0
    8.1392    2.4759   23.7864 N   0  0  0  0  0  0  0  0  0  0  0  0
    7.8187    1.0576   23.8198 C   0  0  0  0  0  0  0  0  0  0  0  0
    8.4220    0.2774   22.6148 C   0  0  2  0  0  0  0  0  0  0  0  0
    7.7092    0.6581   21.3005 C   0  0  0  0  0  0  0  0  0  0  0  0
    7.8607    1.6513   20.6218 O   0  0  0  0  0  0  0  0  0  0  0  0
    6.8135   -0.3407   20.9978 N   0  0  0  0  0  0  0  0  0  0  0  0
    5.8804   -0.1753   19.9566 C   0  0  0  0  0  0  0  0  0  0  0  0
    6.0843   -0.7887   18.7493 C   0  0  0  0  0  0  0  0  0  0  0  0
    5.2774   -0.6431   17.6718 N   0  0  0  0  0  0  0  0  0  0  0  0
    4.2149    0.1138   17.8205 C   0  0  0  0  0  0  0  0  0  0  0  0
    3.8663    0.7745   19.0337 C   0  0  0  0  0  0  0  0  0  0  0  0
    2.6927    1.5653   19.1548 C   0  0  0  0  0  0  0  0  0  0  0  0
    2.3647    2.1485   20.3459 C   0  0  0  0  0  0  0  0  0  0  0  0
    3.2201    2.0148   21.4629 C   0  0  0  0  0  0  0  0  0  0  0  0
    4.3816    1.2900   21.3624 C   0  0  0  0  0  0  0  0  0  0  0  0
    4.7223    0.6356   20.1462 C   0  0  0  0  0  0  0  0  0  0  0  0
    5.0579    1.2382   22.2126 H   0  0  0  0  0  0  0  0  0  0  0  0
    2.9724    2.5080   22.3965 H   0  0  0  0  0  0  0  0  0  0  0  0
    1.4459    2.7207   20.4413 H   0  0  0  0  0  0  0  0  0  0  0  0
    2.0761    1.7061   18.2734 H   0  0  0  0  0  0  0  0  0  0  0  0
    3.5569    0.2196   16.9584 H   0  0  0  0  0  0  0  0  0  0  0  0
    6.9621   -1.4177   18.6121 H   0  0  0  0  0  0  0  0  0  0  0  0
    6.8456   -1.4830   21.8754 C   0  0  0  0  0  0  0  0  0  0  0  0
    8.1298   -1.2498   22.6749 C   0  0  2  0  0  0  0  0  0  0  0  0
    8.0965   -1.9220   24.0516 C   0  0  0  0  0  0  0  0  0  0  0  0
    8.0140   -3.3623   23.9326 N   0  0  0  0  0  0  0  0  0  0  0  0
    6.8457   -4.0630   23.9845 C   0  0  0  0  0  0  0  0  0  0  0  0
    6.8511   -5.4560   23.7172 C   0  0  0  0  0  0  0  0  0  0  0  0
    5.7595   -6.1914   23.7382 N   0  0  0  0  0  0  0  0  0  0  0  0
    4.6170   -5.5549   24.0444 C   0  0  0  0  0  0  0  0  0  0  0  0
    4.6082   -4.2031   24.3254 C   0  0  0  0  0  0  0  0  0  0  0  0
    5.7125   -3.4410   24.2963 N   0  0  0  0  0  0  0  0  0  0  0  0
    3.6821   -3.7021   24.5865 H   0  0  0  0  0  0  0  0  0  0  0  0
    3.7024   -6.1421   24.0619 H   0  0  0  0  0  0  0  0  0  0  0  0
    7.7882   -5.9552   23.4843 H   0  0  0  0  0  0  0  0  0  0  0  0
    8.8410   -3.8728   23.6677 H   0  0  0  0  0  0  0  0  0  0  0  0
    7.2164   -1.6051   24.6235 H   0  0  0  0  0  0  0  0  0  0  0  0
    9.0014   -1.6699   24.6168 H   0  0  0  0  0  0  0  0  0  0  0  0
    8.9279   -1.7270   22.1000 H   0  0  0  0  0  0  0  0  0  0  0  0
    6.8798   -2.4179   21.3061 H   0  0  0  0  0  0  0  0  0  0  0  0
    5.9560   -1.5315   22.5168 H   0  0  0  0  0  0  0  0  0  0  0  0
    9.8870    0.6403   22.5188 C   0  0  0  0  0  0  0  0  0  0  0  0
   10.8077   -0.2123   21.8957 C   0  0  0  0  0  0  0  0  0  0  0  0
   12.1537    0.1035   21.9041 C   0  0  0  0  0  0  0  0  0  0  0  0
   13.2973   -1.0674   21.3001 Cl  0  0  0  0  0  0  0  0  0  0  0  0
   12.6255    1.3169   22.4084 C   0  0  0  0  0  0  0  0  0  0  0  0
   11.6986    2.2186   22.9076 C   0  0  0  0  0  0  0  0  0  0  0  0
   10.3445    1.8883   22.9647 C   0  0  0  0  0  0  0  0  0  0  0  0
    9.3915    2.9141   23.4890 C   0  0  0  0  0  0  0  0  0  0  0  0
    9.7192    4.0928   23.6227 O   0  0  0  0  0  0  0  0  0  0  0  0
   11.9978    3.2021   23.2542 H   0  0  0  0  0  0  0  0  0  0  0  0
   13.6911    1.5314   22.3834 H   0  0  0  0  0  0  0  0  0  0  0  0
   10.5073   -1.1168   21.3712 H   0  0  0  0  0  0  0  0  0  0  0  0
    8.2119    0.6329   24.7512 H   0  0  0  0  0  0  0  0  0  0  0  0
    6.7292    0.9589   23.8341 H   0  0  0  0  0  0  0  0  0  0  0  0
    7.5839    4.0974   25.0128 H   0  0  0  0  0  0  0  0  0  0  0  0
    6.2932    2.9534   24.6193 H   0  0  0  0  0  0  0  0  0  0  0  0
    8.3308    5.4874   23.3338 H   0  0  0  0  0  0  0  0  0  0  0  0
    7.4276    5.8291   20.8775 H   0  0  0  0  0  0  0  0  0  0  0  0
    6.1443    6.6893   21.7425 H   0  0  0  0  0  0  0  0  0  0  0  0
    7.8297    7.2475   21.8940 H   0  0  0  0  0  0  0  0  0  0  0  0
  1  2  1  0
  2  3  1  0
  3  4  2  0
  3  5  1  0
  5  6  1  0
  6  7  1  0
  8  7  1  1
  8  9  1  0
  9 10  2  0
  9 11  1  0
 11 12  1  0
 12 13  2  0
 13 14  1  0
 14 15  2  0
 15 16  1  0
 16 17  2  0
 17 18  1  0
 18 19  2  0
 19 20  1  0
 20 21  2  0
 20 22  1  0
 19 23  1  0
 18 24  1  0
 17 25  1  0
 15 26  1  0
 13 27  1  0
 11 28  1  0
 28 29  1  0
 29 30  1  0
 30 31  1  0
 31 32  1  0
 32 33  2  0
 33 34  1  0
 34 35  2  0
 35 36  1  0
 36 37  2  0
 36 38  1  0
 35 39  1  0
 33 40  1  0
 31 41  1  0
 30 42  1  0
 30 43  1  0
 29 44  1  6
 28 45  1  0
 28 46  1  0
  8 47  1  0
 47 48  2  0
 48 49  1  0
 49 50  1  0
 49 51  2  0
 51 52  1  0
 52 53  2  0
 53 54  1  0
 54 55  2  0
 52 56  1  0
 51 57  1  0
 48 58  1  0
  7 59  1  0
  7 60  1  0
  5 61  1  0
  5 62  1  0
  2 63  1  0
  1 64  1  0
  1 65  1  0
  1 66  1  0
 54  6  1  0
 29  8  1  0
 37 32  1  0
 53 47  1  0
 21 12  1  0
 21 16  1  0
M  END
>  <cnnaffinities>  (55) 
[6.94177, 6.72541, 6.54097]

>  <score>  (55) 
6.94177

>  <index>  (55) 
54

>  <Smiles>  (55) 
C(N(C(=O)C(N1C([C@@]2(C(=O)N(c3c(nc(c4c(c(c(c(c34)[H])[H])[H])[H])[H])[H])C([C@@]2(C(N(c2c(nc(c(n2)[H])[H])[H])[H])([H])[H])[H])([H])[H])c2c(c(Cl)c(c(c2C1=O)[H])[H])[H])([H])[H])([H])[H])[H])([H])([H])[H]

>  <h>  (55) 
<NA>

>  <Training>  (55) 
True

>  <Success>  (55) 
True

>  <enamine_searched>  (55) 
False

>  <enamine_id>  (55) 
nan

$$$$

     RDKit          3D

 56 61  0  0  0  0  0  0  0  0999 V2000
    4.8598    4.6655   20.5863 C   0  0  0  0  0  0  0  0  0  0  0  0
    6.0431    4.7701   21.4081 N   0  0  0  0  0  0  0  0  0  0  0  0
    7.0657    5.6151   21.1768 C   0  0  0  0  0  0  0  0  0  0  0  0
    8.0112    5.3803   22.1442 C   0  0  0  0  0  0  0  0  0  0  0  0
    7.4601    4.3486   22.9350 C   0  0  0  0  0  0  0  0  0  0  0  0
    8.0514    3.6578   24.1385 C   0  0  0  0  0  0  0  0  0  0  0  0
    8.8053    2.4654   23.7720 N   0  0  0  0  0  0  0  0  0  0  0  0
    8.1676    1.1664   23.8206 C   0  0  0  0  0  0  0  0  0  0  0  0
    8.4701    0.2706   22.5986 C   0  0  1  0  0  0  0  0  0  0  0  0
    7.9078   -1.1401   22.9002 C   0  0  0  0  0  0  0  0  0  0  0  0
    7.0682   -1.5726   21.6941 C   0  0  0  0  0  0  0  0  0  0  0  0
    6.7831   -0.3059   21.0542 N   0  0  0  0  0  0  0  0  0  0  0  0
    5.8733   -0.1455   19.9917 C   0  0  0  0  0  0  0  0  0  0  0  0
    6.0899   -0.7679   18.7898 C   0  0  0  0  0  0  0  0  0  0  0  0
    5.2969   -0.6218   17.7043 N   0  0  0  0  0  0  0  0  0  0  0  0
    4.2393    0.1473   17.8429 C   0  0  0  0  0  0  0  0  0  0  0  0
    3.8879    0.8258   19.0463 C   0  0  0  0  0  0  0  0  0  0  0  0
    2.7107    1.6086   19.1594 C   0  0  0  0  0  0  0  0  0  0  0  0
    2.3555    2.1710   20.3549 C   0  0  0  0  0  0  0  0  0  0  0  0
    3.1945    2.0366   21.4817 C   0  0  0  0  0  0  0  0  0  0  0  0
    4.3691    1.3315   21.3895 C   0  0  0  0  0  0  0  0  0  0  0  0
    4.7300    0.6833   20.1710 C   0  0  0  0  0  0  0  0  0  0  0  0
    5.0224    1.2787   22.2547 H   0  0  0  0  0  0  0  0  0  0  0  0
    2.9245    2.5263   22.4137 H   0  0  0  0  0  0  0  0  0  0  0  0
    1.4198    2.7133   20.4449 H   0  0  0  0  0  0  0  0  0  0  0  0
    2.1012    1.7461   18.2742 H   0  0  0  0  0  0  0  0  0  0  0  0
    3.5783    0.2374   16.9809 H   0  0  0  0  0  0  0  0  0  0  0  0
    6.9646   -1.4052   18.6656 H   0  0  0  0  0  0  0  0  0  0  0  0
    7.6933    0.6892   21.3352 C   0  0  0  0  0  0  0  0  0  0  0  0
    7.8431    1.6853   20.6621 O   0  0  0  0  0  0  0  0  0  0  0  0
    6.1333   -2.0594   21.9904 H   0  0  0  0  0  0  0  0  0  0  0  0
    7.6151   -2.2600   21.0332 H   0  0  0  0  0  0  0  0  0  0  0  0
    7.2541   -1.0908   23.7773 H   0  0  0  0  0  0  0  0  0  0  0  0
    8.7073   -1.8417   23.1405 H   0  0  0  0  0  0  0  0  0  0  0  0
    9.9610    0.3286   22.3460 C   0  0  0  0  0  0  0  0  0  0  0  0
   10.6183   -0.7318   21.7298 C   0  0  0  0  0  0  0  0  0  0  0  0
   11.9846   -0.6787   21.5247 C   0  0  0  0  0  0  0  0  0  0  0  0
   12.7785   -2.0775   20.8743 Cl  0  0  0  0  0  0  0  0  0  0  0  0
   12.7382    0.4529   21.8491 C   0  0  0  0  0  0  0  0  0  0  0  0
   12.0787    1.5342   22.3983 C   0  0  0  0  0  0  0  0  0  0  0  0
   10.7100    1.4661   22.6571 C   0  0  0  0  0  0  0  0  0  0  0  0
   10.0795    2.6501   23.3038 C   0  0  0  0  0  0  0  0  0  0  0  0
   10.6675    3.7172   23.3986 O   0  0  0  0  0  0  0  0  0  0  0  0
   12.5782    2.4727   22.6135 H   0  0  0  0  0  0  0  0  0  0  0  0
   13.8099    0.4748   21.6827 H   0  0  0  0  0  0  0  0  0  0  0  0
   10.0694   -1.6166   21.4232 H   0  0  0  0  0  0  0  0  0  0  0  0
    8.5274    0.6166   24.6979 H   0  0  0  0  0  0  0  0  0  0  0  0
    7.0835    1.3077   23.9163 H   0  0  0  0  0  0  0  0  0  0  0  0
    8.7284    4.3221   24.6802 H   0  0  0  0  0  0  0  0  0  0  0  0
    7.2551    3.3622   24.8312 H   0  0  0  0  0  0  0  0  0  0  0  0
    6.2619    3.9858   22.4774 N   0  0  0  0  0  0  0  0  0  0  0  0
    8.9760    5.8589   22.2586 H   0  0  0  0  0  0  0  0  0  0  0  0
    7.0390    6.3218   20.3538 H   0  0  0  0  0  0  0  0  0  0  0  0
    4.8279    3.7007   20.0641 H   0  0  0  0  0  0  0  0  0  0  0  0
    3.9574    4.8235   21.1815 H   0  0  0  0  0  0  0  0  0  0  0  0
    4.9394    5.4785   19.8714 H   0  0  0  0  0  0  0  0  0  0  0  0
  1  2  1  0
  2  3  1  0
  3  4  2  0
  4  5  1  0
  5  6  1  0
  6  7  1  0
  7  8  1  0
  9  8  1  1
  9 10  1  0
 10 11  1  0
 11 12  1  0
 12 13  1  0
 13 14  2  0
 14 15  1  0
 15 16  2  0
 16 17  1  0
 17 18  2  0
 18 19  1  0
 19 20  2  0
 20 21  1  0
 21 22  2  0
 21 23  1  0
 20 24  1  0
 19 25  1  0
 18 26  1  0
 16 27  1  0
 14 28  1  0
 12 29  1  0
 29 30  2  0
 11 31  1  0
 11 32  1  0
 10 33  1  0
 10 34  1  0
  9 35  1  0
 35 36  2  0
 36 37  1  0
 37 38  1  0
 37 39  2  0
 39 40  1  0
 40 41  2  0
 41 42  1  0
 42 43  2  0
 40 44  1  0
 39 45  1  0
 36 46  1  0
  8 47  1  0
  8 48  1  0
  6 49  1  0
  6 50  1  0
  5 51  2  0
  4 52  1  0
  3 53  1  0
  1 54  1  0
  1 55  1  0
  1 56  1  0
 51  2  1  0
 42  7  1  0
 29  9  1  0
 41 35  1  0
 22 13  1  0
 22 17  1  0
M  END
>  <cnnaffinities>  (56) 
[5.9511]

>  <score>  (56) 
5.9511

>  <index>  (56) 
55

>  <Smiles>  (56) 
C(n1c(c(c(C(N2C([C@]3(C(C(N(c4c(nc(c5c(c(c(c(c45)[H])[H])[H])[H])[H])[H])C3=O)([H])[H])([H])[H])c3c(c(Cl)c(c(c3C2=O)[H])[H])[H])([H])[H])([H])[H])n1)[H])[H])([H])([H])[H]

>  <h>  (56) 
<NA>

>  <Training>  (56) 
True

>  <Success>  (56) 
True

>  <enamine_searched>  (56) 
False

>  <enamine_id>  (56) 
nan

$$$$

     RDKit          3D

 41 43  0  0  0  0  0  0  0  0999 V2000
    7.9520    1.4396   20.2225 O   0  0  0  0  0  0  0  0  0  0  0  0
    7.7439    0.7952   21.2347 C   0  0  0  0  0  0  0  0  0  0  0  0
    6.8463   -0.4476   21.1629 C   0  0  0  0  0  0  0  0  0  0  0  0
    5.8595   -0.2673   20.0447 C   0  0  0  0  0  0  0  0  0  0  0  0
    6.1134   -0.7976   18.8071 C   0  0  0  0  0  0  0  0  0  0  0  0
    5.3401   -0.6229   17.7037 N   0  0  0  0  0  0  0  0  0  0  0  0
    4.2685    0.1193   17.8497 C   0  0  0  0  0  0  0  0  0  0  0  0
    3.8998    0.7652   19.0619 C   0  0  0  0  0  0  0  0  0  0  0  0
    2.7401    1.5757   19.1608 C   0  0  0  0  0  0  0  0  0  0  0  0
    2.4070    2.1791   20.3424 C   0  0  0  0  0  0  0  0  0  0  0  0
    3.2566    2.0477   21.4638 C   0  0  0  0  0  0  0  0  0  0  0  0
    4.4048    1.2978   21.3866 C   0  0  0  0  0  0  0  0  0  0  0  0
    4.7368    0.5953   20.1923 C   0  0  0  0  0  0  0  0  0  0  0  0
    5.0643    1.2544   22.2523 H   0  0  0  0  0  0  0  0  0  0  0  0
    2.9954    2.5534   22.3907 H   0  0  0  0  0  0  0  0  0  0  0  0
    1.4963    2.7669   20.4257 H   0  0  0  0  0  0  0  0  0  0  0  0
    2.1323    1.7227   18.2720 H   0  0  0  0  0  0  0  0  0  0  0  0
    3.6226    0.2380   16.9773 H   0  0  0  0  0  0  0  0  0  0  0  0
    7.0127   -1.3933   18.6515 H   0  0  0  0  0  0  0  0  0  0  0  0
    7.4897   -1.3165   20.9517 H   0  0  0  0  0  0  0  0  0  0  0  0
    6.3474   -0.6052   22.1253 H   0  0  0  0  0  0  0  0  0  0  0  0
    8.2978    1.1399   22.4549 N   0  0  0  0  0  0  0  0  0  0  0  0
    8.8216    0.1499   23.3908 C   0  0  0  0  0  0  0  0  0  0  0  0
   10.0640   -0.6080   22.8773 C   0  0  0  0  0  0  0  0  0  0  0  0
   10.9038    0.1799   21.8570 C   0  0  0  0  0  0  0  0  0  0  0  0
   11.4598    1.8473   22.3777 S   0  0  0  0  0  0  0  0  0  0  0  0
   10.0469    2.8775   21.8729 C   0  0  0  0  0  0  0  0  0  0  0  0
    8.7824    2.4996   22.6383 C   0  0  1  0  0  0  0  0  0  0  0  0
    7.6595    3.5208   22.4897 C   0  0  0  0  0  0  0  0  0  0  0  0
    6.5784    3.1207   23.1813 F   0  0  0  0  0  0  0  0  0  0  0  0
    7.2795    3.7569   21.2360 F   0  0  0  0  0  0  0  0  0  0  0  0
    8.0642    4.6961   23.0142 F   0  0  0  0  0  0  0  0  0  0  0  0
    9.0441    2.5724   23.6982 H   0  0  0  0  0  0  0  0  0  0  0  0
   10.3104    3.9025   22.1500 H   0  0  0  0  0  0  0  0  0  0  0  0
    9.9014    2.8525   20.7923 H   0  0  0  0  0  0  0  0  0  0  0  0
   10.3285    0.2876   20.9286 H   0  0  0  0  0  0  0  0  0  0  0  0
   11.8264   -0.3704   21.6241 H   0  0  0  0  0  0  0  0  0  0  0  0
   10.6729   -0.8882   23.7450 H   0  0  0  0  0  0  0  0  0  0  0  0
    9.7653   -1.5510   22.3931 H   0  0  0  0  0  0  0  0  0  0  0  0
    9.0733    0.6954   24.3058 H   0  0  0  0  0  0  0  0  0  0  0  0
    8.0389   -0.5566   23.6802 H   0  0  0  0  0  0  0  0  0  0  0  0
  1  2  2  0
  2  3  1  0
  3  4  1  0
  4  5  2  0
  5  6  1  0
  6  7  2  0
  7  8  1  0
  8  9  2  0
  9 10  1  0
 10 11  2  0
 11 12  1  0
 12 13  2  0
 12 14  1  0
 11 15  1  0
 10 16  1  0
  9 17  1  0
  7 18  1  0
  5 19  1  0
  3 20  1  0
  3 21  1  0
  2 22  1  0
 22 23  1  0
 23 24  1  0
 24 25  1  0
 25 26  1  0
 26 27  1  0
 27 28  1  0
 28 29  1  0
 29 30  1  0
 29 31  1  0
 29 32  1  0
 28 33  1  1
 27 34  1  0
 27 35  1  0
 25 36  1  0
 25 37  1  0
 24 38  1  0
 24 39  1  0
 23 40  1  0
 23 41  1  0
 13  4  1  0
 28 22  1  0
 13  8  1  0
M  END
>  <cnnaffinities>  (57) 
[5.27031, 5.27193, 5.27319, 5.47113, 5.46942, 5.47041, 5.46944, 5.27443, 5.33706, 5.31956, 5.34008, 5.29273, 5.29261, 5.29251, 5.40288, 5.33064, 5.331, 5.33098, 5.33099, 5.33098, 5.31831, 5.3183, 5.3183, 5.31829]

>  <score>  (57) 
5.27031

>  <index>  (57) 
56

>  <Smiles>  (57) 
O=C(C(c1c(nc(c2c(c(c(c(c12)[H])[H])[H])[H])[H])[H])([H])[H])N1C(C(C(SC([C@]1(C(F)(F)F)[H])([H])[H])([H])[H])([H])[H])([H])[H]

>  <h>  (57) 
<NA>

>  <Training>  (57) 
True

>  <Success>  (57) 
True

>  <enamine_searched>  (57) 
False

>  <enamine_id>  (57) 
nan

$$$$

     RDKit          3D

 67 72  0  0  0  0  0  0  0  0999 V2000
    6.8389    4.0983   28.0400 C   0  0  0  0  0  0  0  0  0  0  0  0
    7.0625    4.0981   26.6089 N   0  0  0  0  0  0  0  0  0  0  0  0
    6.4610    3.1244   25.8711 C   0  0  0  0  0  0  0  0  0  0  0  0
    5.7517    2.2647   26.3655 O   0  0  0  0  0  0  0  0  0  0  0  0
    6.7396    3.2084   24.3690 C   0  0  0  0  0  0  0  0  0  0  0  0
    7.8636    2.3843   23.9675 N   0  0  0  0  0  0  0  0  0  0  0  0
    7.7149    0.9364   23.9450 C   0  0  0  0  0  0  0  0  0  0  0  0
    8.3738    0.3283   22.6747 C   0  0  2  0  0  0  0  0  0  0  0  0
    7.5928    0.7427   21.4094 C   0  0  0  0  0  0  0  0  0  0  0  0
    7.6205    1.8077   20.8265 O   0  0  0  0  0  0  0  0  0  0  0  0
    6.8243   -0.3255   21.0028 N   0  0  0  0  0  0  0  0  0  0  0  0
    5.8756   -0.1794   19.9725 C   0  0  0  0  0  0  0  0  0  0  0  0
    6.0767   -0.7981   18.7662 C   0  0  0  0  0  0  0  0  0  0  0  0
    5.2733   -0.6505   17.6865 N   0  0  0  0  0  0  0  0  0  0  0  0
    4.2144    0.1115   17.8365 C   0  0  0  0  0  0  0  0  0  0  0  0
    3.8656    0.7719   19.0489 C   0  0  0  0  0  0  0  0  0  0  0  0
    2.6926    1.5614   19.1594 C   0  0  0  0  0  0  0  0  0  0  0  0
    2.3543    2.1434   20.3488 C   0  0  0  0  0  0  0  0  0  0  0  0
    3.1912    1.9968   21.4768 C   0  0  0  0  0  0  0  0  0  0  0  0
    4.3472    1.2651   21.3890 C   0  0  0  0  0  0  0  0  0  0  0  0
    4.7119    0.6267   20.1656 C   0  0  0  0  0  0  0  0  0  0  0  0
    4.9902    1.1764   22.2610 H   0  0  0  0  0  0  0  0  0  0  0  0
    2.9162    2.4719   22.4137 H   0  0  0  0  0  0  0  0  0  0  0  0
    1.4370    2.7165   20.4364 H   0  0  0  0  0  0  0  0  0  0  0  0
    2.0810    1.6968   18.2745 H   0  0  0  0  0  0  0  0  0  0  0  0
    3.5554    0.2187   16.9762 H   0  0  0  0  0  0  0  0  0  0  0  0
    6.9570   -1.4264   18.6353 H   0  0  0  0  0  0  0  0  0  0  0  0
    6.9664   -1.5117   21.8093 C   0  0  0  0  0  0  0  0  0  0  0  0
    8.2324   -1.2166   22.6188 C   0  0  2  0  0  0  0  0  0  0  0  0
    8.2598   -1.9759   23.9463 C   0  0  0  0  0  0  0  0  0  0  0  0
    8.2966   -3.4026   23.7359 N   0  0  0  0  0  0  0  0  0  0  0  0
    7.1734   -4.1782   23.6901 C   0  0  0  0  0  0  0  0  0  0  0  0
    5.8854   -3.8850   24.0479 C   0  0  0  0  0  0  0  0  0  0  0  0
    4.9741   -4.9094   23.9294 N   0  0  0  0  0  0  0  0  0  0  0  0
    5.5398   -5.9891   23.4958 C   0  0  0  0  0  0  0  0  0  0  0  0
    4.8397   -7.2873   23.2657 C   0  0  0  0  0  0  0  0  0  0  0  0
    5.4695   -8.1258   23.5745 H   0  0  0  0  0  0  0  0  0  0  0  0
    4.6123   -7.4110   22.1998 H   0  0  0  0  0  0  0  0  0  0  0  0
    3.9027   -7.3071   23.8272 H   0  0  0  0  0  0  0  0  0  0  0  0
    7.2550   -5.8426   23.1687 S   0  0  0  0  0  0  0  0  0  0  0  0
    5.5416   -2.9262   24.4194 H   0  0  0  0  0  0  0  0  0  0  0  0
    9.1767   -3.8405   23.5108 H   0  0  0  0  0  0  0  0  0  0  0  0
    7.3609   -1.7431   24.5298 H   0  0  0  0  0  0  0  0  0  0  0  0
    9.1327   -1.6803   24.5391 H   0  0  0  0  0  0  0  0  0  0  0  0
    9.0643   -1.5880   22.0187 H   0  0  0  0  0  0  0  0  0  0  0  0
    7.0794   -2.4140   21.1985 H   0  0  0  0  0  0  0  0  0  0  0  0
    6.0891   -1.6708   22.4563 H   0  0  0  0  0  0  0  0  0  0  0  0
    9.7969    0.8485   22.6108 C   0  0  0  0  0  0  0  0  0  0  0  0
   10.8184    0.1089   22.0114 C   0  0  0  0  0  0  0  0  0  0  0  0
   12.1203    0.5591   22.0749 C   0  0  0  0  0  0  0  0  0  0  0  0
   13.3669   -0.4875   21.4489 Cl  0  0  0  0  0  0  0  0  0  0  0  0
   12.4471    1.7992   22.6183 C   0  0  0  0  0  0  0  0  0  0  0  0
   11.4268    2.5871   23.1081 C   0  0  0  0  0  0  0  0  0  0  0  0
   10.1193    2.1118   23.1302 C   0  0  0  0  0  0  0  0  0  0  0  0
    9.0569    2.9953   23.7023 C   0  0  0  0  0  0  0  0  0  0  0  0
    9.2369    4.1876   23.9097 O   0  0  0  0  0  0  0  0  0  0  0  0
   11.6151    3.5825   23.4902 H   0  0  0  0  0  0  0  0  0  0  0  0
   13.4769    2.1295   22.6231 H   0  0  0  0  0  0  0  0  0  0  0  0
   10.6349   -0.8061   21.4568 H   0  0  0  0  0  0  0  0  0  0  0  0
    8.1948    0.4957   24.8340 H   0  0  0  0  0  0  0  0  0  0  0  0
    6.6416    0.7091   23.9936 H   0  0  0  0  0  0  0  0  0  0  0  0
    6.9536    4.2433   24.0898 H   0  0  0  0  0  0  0  0  0  0  0  0
    5.8497    2.8777   23.8221 H   0  0  0  0  0  0  0  0  0  0  0  0
    7.8667    4.5637   26.2104 H   0  0  0  0  0  0  0  0  0  0  0  0
    7.3599    4.9394   28.4991 H   0  0  0  0  0  0  0  0  0  0  0  0
    5.7694    4.1972   28.2393 H   0  0  0  0  0  0  0  0  0  0  0  0
    7.1850    3.1623   28.4916 H   0  0  0  0  0  0  0  0  0  0  0  0
  1  2  1  0
  2  3  1  0
  3  4  2  0
  3  5  1  0
  5  6  1  0
  6  7  1  0
  8  7  1  1
  8  9  1  0
  9 10  2  0
  9 11  1  0
 11 12  1  0
 12 13  2  0
 13 14  1  0
 14 15  2  0
 15 16  1  0
 16 17  2  0
 17 18  1  0
 18 19  2  0
 19 20  1  0
 20 21  2  0
 20 22  1  0
 19 23  1  0
 18 24  1  0
 17 25  1  0
 15 26  1  0
 13 27  1  0
 11 28  1  0
 28 29  1  0
 29 30  1  0
 30 31  1  0
 31 32  1  0
 32 33  2  0
 33 34  1  0
 34 35  2  0
 35 36  1  0
 36 37  1  0
 36 38  1  0
 36 39  1  0
 35 40  1  0
 33 41  1  0
 31 42  1  0
 30 43  1  0
 30 44  1  0
 29 45  1  6
 28 46  1  0
 28 47  1  0
  8 48  1  0
 48 49  2  0
 49 50  1  0
 50 51  1  0
 50 52  2  0
 52 53  1  0
 53 54  2  0
 54 55  1  0
 55 56  2  0
 53 57  1  0
 52 58  1  0
 49 59  1  0
  7 60  1  0
  7 61  1  0
  5 62  1  0
  5 63  1  0
  2 64  1  0
  1 65  1  0
  1 66  1  0
  1 67  1  0
 55  6  1  0
 29  8  1  0
 40 32  1  0
 54 48  1  0
 21 12  1  0
 21 16  1  0
M  END
>  <cnnaffinities>  (58) 
[6.81557, 6.73085, 6.78447]

>  <score>  (58) 
6.81557

>  <index>  (58) 
57

>  <Smiles>  (58) 
C(N(C(=O)C(N1C([C@@]2(C(=O)N(c3c(nc(c4c(c(c(c(c34)[H])[H])[H])[H])[H])[H])C([C@@]2(C(N(c2c(nc(C([H])([H])[H])s2)[H])[H])([H])[H])[H])([H])[H])c2c(c(Cl)c(c(c2C1=O)[H])[H])[H])([H])[H])([H])[H])[H])([H])([H])[H]

>  <h>  (58) 
<NA>

>  <Training>  (58) 
True

>  <Success>  (58) 
True

>  <enamine_searched>  (58) 
False

>  <enamine_id>  (58) 
nan

$$$$

     RDKit          3D

 57 62  0  0  0  0  0  0  0  0999 V2000
    7.1395   -1.2619   24.2054 C   0  0  0  0  0  0  0  0  0  0  0  0
    7.9396   -1.1650   22.8969 C   0  0  1  0  0  0  0  0  0  0  0  0
    7.0765   -1.5653   21.6791 C   0  0  0  0  0  0  0  0  0  0  0  0
    6.7983   -0.3089   21.0263 N   0  0  0  0  0  0  0  0  0  0  0  0
    5.8685   -0.1596   19.9760 C   0  0  0  0  0  0  0  0  0  0  0  0
    6.0693   -0.7865   18.7746 C   0  0  0  0  0  0  0  0  0  0  0  0
    5.2646   -0.6430   17.6956 N   0  0  0  0  0  0  0  0  0  0  0  0
    4.2056    0.1200   17.8360 C   0  0  0  0  0  0  0  0  0  0  0  0
    3.8525    0.7823   19.0469 C   0  0  0  0  0  0  0  0  0  0  0  0
    2.6741    1.5645   19.1643 C   0  0  0  0  0  0  0  0  0  0  0  0
    2.3304    2.1282   20.3611 C   0  0  0  0  0  0  0  0  0  0  0  0
    3.1645    1.9725   21.4896 C   0  0  0  0  0  0  0  0  0  0  0  0
    4.3391    1.2694   21.3881 C   0  0  0  0  0  0  0  0  0  0  0  0
    4.7045    0.6423   20.1632 C   0  0  0  0  0  0  0  0  0  0  0  0
    5.0014    1.2089   22.2464 H   0  0  0  0  0  0  0  0  0  0  0  0
    2.8856    2.4398   22.4310 H   0  0  0  0  0  0  0  0  0  0  0  0
    1.4176    2.7073   20.4566 H   0  0  0  0  0  0  0  0  0  0  0  0
    2.0579    1.7067   18.2840 H   0  0  0  0  0  0  0  0  0  0  0  0
    3.5493    0.2238   16.9720 H   0  0  0  0  0  0  0  0  0  0  0  0
    6.9398   -1.4251   18.6315 H   0  0  0  0  0  0  0  0  0  0  0  0
    7.6809    0.7024   21.3369 C   0  0  0  0  0  0  0  0  0  0  0  0
    7.7706    1.7401   20.7229 O   0  0  0  0  0  0  0  0  0  0  0  0
    8.5238    0.2522   22.5487 C   0  0  1  0  0  0  0  0  0  0  0  0
    8.3827    1.2639   23.7144 C   0  0  0  0  0  0  0  0  0  0  0  0
    9.0042    2.5425   23.4113 N   0  0  0  0  0  0  0  0  0  0  0  0
    8.3822    3.7836   23.8608 C   0  0  0  0  0  0  0  0  0  0  0  0
    7.5689    4.4479   22.7769 C   0  0  0  0  0  0  0  0  0  0  0  0
    8.0658    5.5473   22.0816 C   0  0  0  0  0  0  0  0  0  0  0  0
    7.2270    6.1511   21.1613 C   0  0  0  0  0  0  0  0  0  0  0  0
    6.0006    5.6891   20.9215 N   0  0  0  0  0  0  0  0  0  0  0  0
    5.6412    4.6219   21.6231 C   0  0  0  0  0  0  0  0  0  0  0  0
    6.3432    3.9578   22.5416 N   0  0  0  0  0  0  0  0  0  0  0  0
    4.6343    4.2567   21.4305 H   0  0  0  0  0  0  0  0  0  0  0  0
    7.5545    7.0262   20.5965 H   0  0  0  0  0  0  0  0  0  0  0  0
    9.0881    5.8868   22.2187 H   0  0  0  0  0  0  0  0  0  0  0  0
    9.1914    4.4477   24.1817 H   0  0  0  0  0  0  0  0  0  0  0  0
    7.7331    3.5718   24.7208 H   0  0  0  0  0  0  0  0  0  0  0  0
   10.2660    2.6225   22.8853 C   0  0  0  0  0  0  0  0  0  0  0  0
   10.8967    3.6732   22.8491 O   0  0  0  0  0  0  0  0  0  0  0  0
   10.8333    1.3317   22.3761 C   0  0  0  0  0  0  0  0  0  0  0  0
   12.2106    1.2512   22.1508 C   0  0  0  0  0  0  0  0  0  0  0  0
   12.7866    0.0770   21.7041 C   0  0  0  0  0  0  0  0  0  0  0  0
   11.9327   -0.9742   21.3980 C   0  0  0  0  0  0  0  0  0  0  0  0
   12.4624   -2.1196   20.9391 F   0  0  0  0  0  0  0  0  0  0  0  0
   10.5625   -0.9041   21.5525 C   0  0  0  0  0  0  0  0  0  0  0  0
    9.9994    0.2247   22.1549 C   0  0  0  0  0  0  0  0  0  0  0  0
    9.9692   -1.7444   21.2049 H   0  0  0  0  0  0  0  0  0  0  0  0
   13.8575   -0.0421   21.5605 H   0  0  0  0  0  0  0  0  0  0  0  0
   12.8134    2.1317   22.3468 H   0  0  0  0  0  0  0  0  0  0  0  0
    7.3279    1.4533   23.9194 H   0  0  0  0  0  0  0  0  0  0  0  0
    8.8355    0.8242   24.6173 H   0  0  0  0  0  0  0  0  0  0  0  0
    7.6118   -2.2615   21.0169 H   0  0  0  0  0  0  0  0  0  0  0  0
    6.1350   -2.0463   21.9662 H   0  0  0  0  0  0  0  0  0  0  0  0
    8.7720   -1.8674   23.0092 H   0  0  0  0  0  0  0  0  0  0  0  0
    6.2662   -0.5993   24.2167 H   0  0  0  0  0  0  0  0  0  0  0  0
    6.7773   -2.2859   24.3454 H   0  0  0  0  0  0  0  0  0  0  0  0
    7.7669   -1.0208   25.0687 H   0  0  0  0  0  0  0  0  0  0  0  0
  1  2  1  0
  2  3  1  0
  3  4  1  0
  4  5  1  0
  5  6  2  0
  6  7  1  0
  7  8  2  0
  8  9  1  0
  9 10  2  0
 10 11  1  0
 11 12  2  0
 12 13  1  0
 13 14  2  0
 13 15  1  0
 12 16  1  0
 11 17  1  0
 10 18  1  0
  8 19  1  0
  6 20  1  0
  4 21  1  0
 21 22  2  0
 21 23  1  0
 23 24  1  1
 24 25  1  0
 25 26  1  0
 26 27  1  0
 27 28  2  0
 28 29  1  0
 29 30  2  0
 30 31  1  0
 31 32  2  0
 31 33  1  0
 29 34  1  0
 28 35  1  0
 26 36  1  0
 26 37  1  0
 25 38  1  0
 38 39  2  0
 38 40  1  0
 40 41  2  0
 41 42  1  0
 42 43  2  0
 43 44  1  0
 43 45  1  0
 45 46  2  0
 45 47  1  0
 42 48  1  0
 41 49  1  0
 24 50  1  0
 24 51  1  0
  3 52  1  0
  3 53  1  0
  2 54  1  1
  1 55  1  0
  1 56  1  0
  1 57  1  0
 23  2  1  0
 32 27  1  0
 46 40  1  0
 14  5  1  0
 46 23  1  0
 14  9  1  0
M  END
>  <cnnaffinities>  (59) 
[6.11844]

>  <score>  (59) 
6.11844

>  <index>  (59) 
58

>  <Smiles>  (59) 
C([C@]1(C(N(c2c(nc(c3c(c(c(c(c23)[H])[H])[H])[H])[H])[H])C(=O)[C@]21C(N(C(c1c(c(nc(n1)[H])[H])[H])([H])[H])C(=O)c1c(c(c(F)c(c21)[H])[H])[H])([H])[H])([H])[H])[H])([H])([H])[H]

>  <h>  (59) 
<NA>

>  <Training>  (59) 
True

>  <Success>  (59) 
True

>  <enamine_searched>  (59) 
False

>  <enamine_id>  (59) 
nan

$$$$

     RDKit          3D

 60 65  0  0  0  0  0  0  0  0999 V2000
    6.6737   -1.1748   26.2500 C   0  0  0  0  0  0  0  0  0  0  0  0
    6.7863   -0.9199   24.8738 O   0  0  0  0  0  0  0  0  0  0  0  0
    7.9039   -1.5514   24.2883 C   0  0  0  0  0  0  0  0  0  0  0  0
    8.0282   -1.1356   22.8274 C   0  0  1  0  0  0  0  0  0  0  0  0
    6.7287   -1.3277   22.0358 C   0  0  0  0  0  0  0  0  0  0  0  0
    6.8386   -0.3414   20.9820 N   0  0  0  0  0  0  0  0  0  0  0  0
    5.8844   -0.1741   19.9472 C   0  0  0  0  0  0  0  0  0  0  0  0
    6.0990   -0.7636   18.7320 C   0  0  0  0  0  0  0  0  0  0  0  0
    5.2818   -0.6302   17.6601 N   0  0  0  0  0  0  0  0  0  0  0  0
    4.2101    0.1110   17.8120 C   0  0  0  0  0  0  0  0  0  0  0  0
    3.8532    0.7624   19.0279 C   0  0  0  0  0  0  0  0  0  0  0  0
    2.6827    1.5583   19.1502 C   0  0  0  0  0  0  0  0  0  0  0  0
    2.3570    2.1373   20.3446 C   0  0  0  0  0  0  0  0  0  0  0  0
    3.1932    1.9632   21.4708 C   0  0  0  0  0  0  0  0  0  0  0  0
    4.3458    1.2210   21.3731 C   0  0  0  0  0  0  0  0  0  0  0  0
    4.7056    0.6069   20.1435 C   0  0  0  0  0  0  0  0  0  0  0  0
    5.0118    1.1481   22.2304 H   0  0  0  0  0  0  0  0  0  0  0  0
    2.9423    2.4522   22.4082 H   0  0  0  0  0  0  0  0  0  0  0  0
    1.4534    2.7353   20.4376 H   0  0  0  0  0  0  0  0  0  0  0  0
    2.0627    1.7020   18.2716 H   0  0  0  0  0  0  0  0  0  0  0  0
    3.5528    0.2190   16.9488 H   0  0  0  0  0  0  0  0  0  0  0  0
    6.9874   -1.3730   18.5880 H   0  0  0  0  0  0  0  0  0  0  0  0
    7.7894    0.6315   21.2039 C   0  0  0  0  0  0  0  0  0  0  0  0
    7.9929    1.5541   20.4463 O   0  0  0  0  0  0  0  0  0  0  0  0
    8.5270    0.3158   22.5288 C   0  0  1  0  0  0  0  0  0  0  0  0
    8.1058    1.3166   23.6443 C   0  0  0  0  0  0  0  0  0  0  0  0
    8.6683    2.6451   23.4638 N   0  0  0  0  0  0  0  0  0  0  0  0
    7.8547    3.8020   23.8048 C   0  0  0  0  0  0  0  0  0  0  0  0
    7.1164    4.3102   22.6121 C   0  0  0  0  0  0  0  0  0  0  0  0
    5.9039    3.9315   22.2758 N   0  0  0  0  0  0  0  0  0  0  0  0
    5.6204    4.6640   21.1473 C   0  0  0  0  0  0  0  0  0  0  0  0
    6.6654    5.4812   20.8065 C   0  0  0  0  0  0  0  0  0  0  0  0
    7.6290    5.2337   21.7649 N   0  0  0  0  0  0  0  0  0  0  0  0
    8.5878    5.5610   21.7631 H   0  0  0  0  0  0  0  0  0  0  0  0
    6.7658    6.2255   20.0320 H   0  0  0  0  0  0  0  0  0  0  0  0
    4.6900    4.5357   20.6179 H   0  0  0  0  0  0  0  0  0  0  0  0
    7.1045    3.5310   24.5547 H   0  0  0  0  0  0  0  0  0  0  0  0
    8.5126    4.5772   24.2081 H   0  0  0  0  0  0  0  0  0  0  0  0
    9.9379    2.8774   23.0155 C   0  0  0  0  0  0  0  0  0  0  0  0
   10.4141    4.0096   22.9973 O   0  0  0  0  0  0  0  0  0  0  0  0
   10.6953    1.6556   22.5772 C   0  0  0  0  0  0  0  0  0  0  0  0
   12.0795    1.7454   22.4241 C   0  0  0  0  0  0  0  0  0  0  0  0
   12.8040    0.6786   21.9304 C   0  0  0  0  0  0  0  0  0  0  0  0
   12.1251   -0.4824   21.5687 C   0  0  0  0  0  0  0  0  0  0  0  0
   12.9974   -1.8086   20.8453 Cl  0  0  0  0  0  0  0  0  0  0  0  0
   10.7563   -0.5880   21.7209 C   0  0  0  0  0  0  0  0  0  0  0  0
   10.0255    0.4507   22.3106 C   0  0  0  0  0  0  0  0  0  0  0  0
   10.2769   -1.4823   21.3430 H   0  0  0  0  0  0  0  0  0  0  0  0
   13.8760    0.7433   21.7923 H   0  0  0  0  0  0  0  0  0  0  0  0
   12.5786    2.6704   22.6907 H   0  0  0  0  0  0  0  0  0  0  0  0
    8.4200    0.9408   24.6269 H   0  0  0  0  0  0  0  0  0  0  0  0
    7.0152    1.4152   23.6344 H   0  0  0  0  0  0  0  0  0  0  0  0
    5.8479   -1.1546   22.6655 H   0  0  0  0  0  0  0  0  0  0  0  0
    6.6493   -2.3382   21.6199 H   0  0  0  0  0  0  0  0  0  0  0  0
    8.7663   -1.8106   22.3947 H   0  0  0  0  0  0  0  0  0  0  0  0
    7.7885   -2.6461   24.3565 H   0  0  0  0  0  0  0  0  0  0  0  0
    8.8276   -1.2829   24.8302 H   0  0  0  0  0  0  0  0  0  0  0  0
    6.5608   -2.2516   26.4509 H   0  0  0  0  0  0  0  0  0  0  0  0
    7.5508   -0.8063   26.8076 H   0  0  0  0  0  0  0  0  0  0  0  0
    5.7826   -0.6498   26.6040 H   0  0  0  0  0  0  0  0  0  0  0  0
  1  2  1  0
  2  3  1  0
  3  4  1  0
  4  5  1  0
  5  6  1  0
  6  7  1  0
  7  8  2  0
  8  9  1  0
  9 10  2  0
 10 11  1  0
 11 12  2  0
 12 13  1  0
 13 14  2  0
 14 15  1  0
 15 16  2  0
 15 17  1  0
 14 18  1  0
 13 19  1  0
 12 20  1  0
 10 21  1  0
  8 22  1  0
  6 23  1  0
 23 24  2  0
 23 25  1  0
 25 26  1  1
 26 27  1  0
 27 28  1  0
 28 29  1  0
 29 30  2  0
 30 31  1  0
 31 32  2  0
 32 33  1  0
 33 34  1  0
 32 35  1  0
 31 36  1  0
 28 37  1  0
 28 38  1  0
 27 39  1  0
 39 40  2  0
 39 41  1  0
 41 42  2  0
 42 43  1  0
 43 44  2  0
 44 45  1  0
 44 46  1  0
 46 47  2  0
 46 48  1  0
 43 49  1  0
 42 50  1  0
 26 51  1  0
 26 52  1  0
  5 53  1  0
  5 54  1  0
  4 55  1  6
  3 56  1  0
  3 57  1  0
  1 58  1  0
  1 59  1  0
  1 60  1  0
 25  4  1  0
 33 29  1  0
 47 41  1  0
 16  7  1  0
 47 25  1  0
 16 11  1  0
M  END
>  <cnnaffinities>  (60) 
[6.31569, 6.08951, 6.21651]

>  <score>  (60) 
6.31569

>  <index>  (60) 
59

>  <Smiles>  (60) 
C(OC([C@]1(C(N(c2c(nc(c3c(c(c(c(c23)[H])[H])[H])[H])[H])[H])C(=O)[C@]21C(N(C(c1nc(c(n1[H])[H])[H])([H])[H])C(=O)c1c(c(c(Cl)c(c21)[H])[H])[H])([H])[H])([H])[H])[H])([H])[H])([H])([H])[H]

>  <h>  (60) 
<NA>

>  <Training>  (60) 
True

>  <Success>  (60) 
True

>  <enamine_searched>  (60) 
False

>  <enamine_id>  (60) 
nan

$$$$

     RDKit          3D

 38 41  0  0  0  0  0  0  0  0999 V2000
    5.3242   -1.8081   22.1240 O   0  0  0  0  0  0  0  0  0  0  0  0
    6.4914   -1.4662   22.0555 C   0  0  0  0  0  0  0  0  0  0  0  0
    6.9027   -0.3589   21.0565 C   0  0  0  0  0  0  0  0  0  0  0  0
    5.8699   -0.1738   19.9708 C   0  0  0  0  0  0  0  0  0  0  0  0
    6.0295   -0.8077   18.7673 C   0  0  0  0  0  0  0  0  0  0  0  0
    5.2145   -0.6835   17.6873 N   0  0  0  0  0  0  0  0  0  0  0  0
    4.1585    0.0818   17.8284 C   0  0  0  0  0  0  0  0  0  0  0  0
    3.8176    0.7421   19.0416 C   0  0  0  0  0  0  0  0  0  0  0  0
    2.6281    1.5027   19.1720 C   0  0  0  0  0  0  0  0  0  0  0  0
    2.3162    2.1241   20.3506 C   0  0  0  0  0  0  0  0  0  0  0  0
    3.1911    2.0157   21.4519 C   0  0  0  0  0  0  0  0  0  0  0  0
    4.3509    1.2834   21.3531 C   0  0  0  0  0  0  0  0  0  0  0  0
    4.6936    0.6177   20.1458 C   0  0  0  0  0  0  0  0  0  0  0  0
    5.0027    1.1984   22.2154 H   0  0  0  0  0  0  0  0  0  0  0  0
    2.9402    2.5206   22.3795 H   0  0  0  0  0  0  0  0  0  0  0  0
    1.4044    2.7095   20.4381 H   0  0  0  0  0  0  0  0  0  0  0  0
    1.9755    1.6008   18.3142 H   0  0  0  0  0  0  0  0  0  0  0  0
    3.5056    0.2019   16.9609 H   0  0  0  0  0  0  0  0  0  0  0  0
    6.8677   -1.4861   18.6228 H   0  0  0  0  0  0  0  0  0  0  0  0
    7.8644   -0.6046   20.5811 H   0  0  0  0  0  0  0  0  0  0  0  0
    7.0469    0.5918   21.5888 H   0  0  0  0  0  0  0  0  0  0  0  0
    7.4672   -2.0571   22.8297 N   0  0  0  0  0  0  0  0  0  0  0  0
    7.2395   -3.3969   23.3783 C   0  0  0  0  0  0  0  0  0  0  0  0
    7.6139   -3.4705   24.8563 C   0  0  0  0  0  0  0  0  0  0  0  0
    8.9623   -2.8563   25.0686 C   0  0  0  0  0  0  0  0  0  0  0  0
    9.9880   -3.1506   26.4331 S   0  0  0  0  0  0  0  0  0  0  0  0
   11.1577   -2.0263   25.8431 C   0  0  0  0  0  0  0  0  0  0  0  0
   10.7751   -1.4659   24.6596 C   0  0  0  0  0  0  0  0  0  0  0  0
    9.5069   -1.9504   24.2141 C   0  0  0  0  0  0  0  0  0  0  0  0
    8.8148   -1.5203   22.9475 C   0  0  0  0  0  0  0  0  0  0  0  0
    9.4501   -1.7930   22.0903 H   0  0  0  0  0  0  0  0  0  0  0  0
    8.7783   -0.4263   22.9467 H   0  0  0  0  0  0  0  0  0  0  0  0
   11.3759   -0.7339   24.1255 H   0  0  0  0  0  0  0  0  0  0  0  0
   12.0646   -1.8423   26.4049 H   0  0  0  0  0  0  0  0  0  0  0  0
    6.8711   -2.9258   25.4510 H   0  0  0  0  0  0  0  0  0  0  0  0
    7.5881   -4.5065   25.2092 H   0  0  0  0  0  0  0  0  0  0  0  0
    7.8345   -4.1340   22.8216 H   0  0  0  0  0  0  0  0  0  0  0  0
    6.1898   -3.6568   23.2379 H   0  0  0  0  0  0  0  0  0  0  0  0
  1  2  2  0
  2  3  1  0
  3  4  1  0
  4  5  2  0
  5  6  1  0
  6  7  2  0
  7  8  1  0
  8  9  2  0
  9 10  1  0
 10 11  2  0
 11 12  1  0
 12 13  2  0
 12 14  1  0
 11 15  1  0
 10 16  1  0
  9 17  1  0
  7 18  1  0
  5 19  1  0
  3 20  1  0
  3 21  1  0
  2 22  1  0
 22 23  1  0
 23 24  1  0
 24 25  1  0
 25 26  1  0
 26 27  1  0
 27 28  2  0
 28 29  1  0
 29 30  1  0
 30 31  1  0
 30 32  1  0
 28 33  1  0
 27 34  1  0
 24 35  1  0
 24 36  1  0
 23 37  1  0
 23 38  1  0
 13  4  1  0
 30 22  1  0
 13  8  1  0
 29 25  2  0
M  END
>  <cnnaffinities>  (61) 
[5.09864, 5.09269, 5.05003, 5.10686, 5.23146]

>  <score>  (61) 
5.09864

>  <index>  (61) 
60

>  <Smiles>  (61) 
O=C(C(c1c(nc(c2c(c(c(c(c12)[H])[H])[H])[H])[H])[H])([H])[H])N1C(C(c2sc(c(c2C1([H])[H])[H])[H])([H])[H])([H])[H]

>  <h>  (61) 
<NA>

>  <Training>  (61) 
True

>  <Success>  (61) 
True

>  <enamine_searched>  (61) 
False

>  <enamine_id>  (61) 
nan

$$$$

     RDKit          3D

 64 70  0  0  0  0  0  0  0  0999 V2000
   10.4326    4.1038   23.0087 O   0  0  0  0  0  0  0  0  0  0  0  0
    9.9420    2.9891   22.8988 C   0  0  0  0  0  0  0  0  0  0  0  0
   10.7487    1.7751   22.5348 C   0  0  0  0  0  0  0  0  0  0  0  0
   12.1273    1.9225   22.3892 C   0  0  0  0  0  0  0  0  0  0  0  0
   12.9036    0.8780   21.9310 C   0  0  0  0  0  0  0  0  0  0  0  0
   12.2735   -0.3169   21.5863 C   0  0  0  0  0  0  0  0  0  0  0  0
   13.2171   -1.6022   20.8800 Cl  0  0  0  0  0  0  0  0  0  0  0  0
   10.9050   -0.4778   21.7124 C   0  0  0  0  0  0  0  0  0  0  0  0
   10.1252    0.5461   22.2613 C   0  0  0  0  0  0  0  0  0  0  0  0
    8.6230    0.3666   22.4302 C   0  0  1  0  0  0  0  0  0  0  0  0
    8.1526    1.4309   23.4567 C   0  0  0  0  0  0  0  0  0  0  0  0
    8.6073    2.7491   23.0658 N   0  0  0  0  0  0  0  0  0  0  0  0
    7.6709    3.8567   23.1229 C   0  0  0  0  0  0  0  0  0  0  0  0
    7.3487    4.3188   24.5332 C   0  0  0  0  0  0  0  0  0  0  0  0
    8.1538    5.2248   25.1870 C   0  0  0  0  0  0  0  0  0  0  0  0
    7.8305    5.5331   26.5081 C   0  0  0  0  0  0  0  0  0  0  0  0
    6.7950    5.0158   27.1599 N   0  0  0  0  0  0  0  0  0  0  0  0
    5.9938    4.1692   26.5292 N   0  0  0  0  0  0  0  0  0  0  0  0
    6.2534    3.8389   25.2671 C   0  0  0  0  0  0  0  0  0  0  0  0
    5.5367    3.1424   24.8326 H   0  0  0  0  0  0  0  0  0  0  0  0
    8.4487    6.2087   27.0960 H   0  0  0  0  0  0  0  0  0  0  0  0
    9.0398    5.6369   24.7011 H   0  0  0  0  0  0  0  0  0  0  0  0
    6.7505    3.5358   22.6099 H   0  0  0  0  0  0  0  0  0  0  0  0
    8.1195    4.6776   22.5561 H   0  0  0  0  0  0  0  0  0  0  0  0
    7.0580    1.4547   23.5039 H   0  0  0  0  0  0  0  0  0  0  0  0
    8.5412    1.1815   24.4543 H   0  0  0  0  0  0  0  0  0  0  0  0
    7.8751    0.6296   21.1046 C   0  0  0  0  0  0  0  0  0  0  0  0
    8.0685    1.5220   20.3187 O   0  0  0  0  0  0  0  0  0  0  0  0
    6.8670   -0.3016   20.9734 N   0  0  0  0  0  0  0  0  0  0  0  0
    5.8912   -0.1551   19.9534 C   0  0  0  0  0  0  0  0  0  0  0  0
    6.0616   -0.8019   18.7591 C   0  0  0  0  0  0  0  0  0  0  0  0
    5.2315   -0.6775   17.6937 N   0  0  0  0  0  0  0  0  0  0  0  0
    4.1770    0.0870   17.8392 C   0  0  0  0  0  0  0  0  0  0  0  0
    3.8333    0.7571   19.0474 C   0  0  0  0  0  0  0  0  0  0  0  0
    2.6548    1.5403   19.1723 C   0  0  0  0  0  0  0  0  0  0  0  0
    2.3602    2.1805   20.3422 C   0  0  0  0  0  0  0  0  0  0  0  0
    3.2433    2.0836   21.4413 C   0  0  0  0  0  0  0  0  0  0  0  0
    4.3928    1.3382   21.3455 C   0  0  0  0  0  0  0  0  0  0  0  0
    4.7193    0.6478   20.1437 C   0  0  0  0  0  0  0  0  0  0  0  0
    5.0692    1.2811   22.1932 H   0  0  0  0  0  0  0  0  0  0  0  0
    3.0208    2.6201   22.3570 H   0  0  0  0  0  0  0  0  0  0  0  0
    1.4574    2.7789   20.4285 H   0  0  0  0  0  0  0  0  0  0  0  0
    2.0031    1.6393   18.3131 H   0  0  0  0  0  0  0  0  0  0  0  0
    3.5185    0.1834   16.9763 H   0  0  0  0  0  0  0  0  0  0  0  0
    6.9144   -1.4620   18.6168 H   0  0  0  0  0  0  0  0  0  0  0  0
    6.7694   -1.2198   22.0888 C   0  0  0  0  0  0  0  0  0  0  0  0
    8.1396   -1.0721   22.7823 C   0  0  2  0  0  0  0  0  0  0  0  0
    8.0889   -1.4630   24.2712 C   0  0  0  0  0  0  0  0  0  0  0  0
    9.3518   -1.2612   24.9602 N   0  0  0  0  0  0  0  0  0  0  0  0
   10.4491   -1.9803   24.6562 C   0  0  0  0  0  0  0  0  0  0  0  0
   10.4369   -3.0167   23.8581 N   0  0  0  0  0  0  0  0  0  0  0  0
   11.6747   -3.5506   23.7089 N   0  0  0  0  0  0  0  0  0  0  0  0
   12.5966   -2.9361   24.3574 C   0  0  0  0  0  0  0  0  0  0  0  0
   12.0283   -1.5806   25.2785 S   0  0  0  0  0  0  0  0  0  0  0  0
   13.6247   -3.2531   24.3173 H   0  0  0  0  0  0  0  0  0  0  0  0
    9.4375   -0.5435   25.6624 H   0  0  0  0  0  0  0  0  0  0  0  0
    7.7653   -2.5120   24.3604 H   0  0  0  0  0  0  0  0  0  0  0  0
    7.3619   -0.8354   24.7918 H   0  0  0  0  0  0  0  0  0  0  0  0
    8.8436   -1.7614   22.3105 H   0  0  0  0  0  0  0  0  0  0  0  0
    6.5758   -2.2352   21.7245 H   0  0  0  0  0  0  0  0  0  0  0  0
    5.9400   -0.9480   22.7658 H   0  0  0  0  0  0  0  0  0  0  0  0
   10.4588   -1.3882   21.3251 H   0  0  0  0  0  0  0  0  0  0  0  0
   13.9703    0.9980   21.7785 H   0  0  0  0  0  0  0  0  0  0  0  0
   12.5579    2.8912   22.6169 H   0  0  0  0  0  0  0  0  0  0  0  0
  1  2  2  0
  2  3  1  0
  3  4  2  0
  4  5  1  0
  5  6  2  0
  6  7  1  0
  6  8  1  0
  8  9  2  0
  9 10  1  0
 10 11  1  1
 11 12  1  0
 12 13  1  0
 13 14  1  0
 14 15  2  0
 15 16  1  0
 16 17  2  0
 17 18  1  0
 18 19  2  0
 19 20  1  0
 16 21  1  0
 15 22  1  0
 13 23  1  0
 13 24  1  0
 11 25  1  0
 11 26  1  0
 10 27  1  0
 27 28  2  0
 27 29  1  0
 29 30  1  0
 30 31  2  0
 31 32  1  0
 32 33  2  0
 33 34  1  0
 34 35  2  0
 35 36  1  0
 36 37  2  0
 37 38  1  0
 38 39  2  0
 38 40  1  0
 37 41  1  0
 36 42  1  0
 35 43  1  0
 33 44  1  0
 31 45  1  0
 29 46  1  0
 46 47  1  0
 47 48  1  0
 48 49  1  0
 49 50  1  0
 50 51  2  0
 51 52  1  0
 52 53  2  0
 53 54  1  0
 53 55  1  0
 49 56  1  0
 48 57  1  0
 48 58  1  0
 47 59  1  6
 46 60  1  0
 46 61  1  0
  8 62  1  0
  5 63  1  0
  4 64  1  0
 12  2  1  0
 19 14  1  0
 39 30  1  0
 54 50  1  0
  9  3  1  0
 47 10  1  0
 39 34  1  0
M  END
>  <cnnaffinities>  (62) 
[6.52991, 6.57055]

>  <score>  (62) 
6.52991

>  <index>  (62) 
61

>  <Smiles>  (62) 
O=C1c2c(c(c(Cl)c(c2[C@@]2(C(N1C(c1c(c(nnc1[H])[H])[H])([H])[H])([H])[H])C(=O)N(c1c(nc(c3c(c(c(c(c13)[H])[H])[H])[H])[H])[H])C([C@@]2(C(N(c1nnc(s1)[H])[H])([H])[H])[H])([H])[H])[H])[H])[H]

>  <h>  (62) 
<NA>

>  <Training>  (62) 
True

>  <Success>  (62) 
True

>  <enamine_searched>  (62) 
False

>  <enamine_id>  (62) 
nan

$$$$

     RDKit          3D

 70 76  0  0  0  0  0  0  0  0999 V2000
    8.2842   -1.5402   24.1868 C   0  0  0  0  0  0  0  0  0  0  0  0
    8.1928   -1.2386   22.6992 C   0  0  1  0  0  0  0  0  0  0  0  0
    6.7503   -1.1961   22.1585 C   0  0  0  0  0  0  0  0  0  0  0  0
    6.8779   -0.3599   20.9808 N   0  0  0  0  0  0  0  0  0  0  0  0
    5.9105   -0.1776   19.9603 C   0  0  0  0  0  0  0  0  0  0  0  0
    6.1221   -0.7468   18.7318 C   0  0  0  0  0  0  0  0  0  0  0  0
    5.2947   -0.6121   17.6684 N   0  0  0  0  0  0  0  0  0  0  0  0
    4.2217    0.1236   17.8360 C   0  0  0  0  0  0  0  0  0  0  0  0
    3.8822    0.7853   19.0490 C   0  0  0  0  0  0  0  0  0  0  0  0
    2.7233    1.5985   19.1600 C   0  0  0  0  0  0  0  0  0  0  0  0
    2.4227    2.2276   20.3372 C   0  0  0  0  0  0  0  0  0  0  0  0
    3.2774    2.0881   21.4503 C   0  0  0  0  0  0  0  0  0  0  0  0
    4.4148    1.3187   21.3661 C   0  0  0  0  0  0  0  0  0  0  0  0
    4.7464    0.6331   20.1619 C   0  0  0  0  0  0  0  0  0  0  0  0
    5.0821    1.2486   22.2210 H   0  0  0  0  0  0  0  0  0  0  0  0
    3.0340    2.6021   22.3774 H   0  0  0  0  0  0  0  0  0  0  0  0
    1.5275    2.8453   20.4130 H   0  0  0  0  0  0  0  0  0  0  0  0
    2.1026    1.7267   18.2793 H   0  0  0  0  0  0  0  0  0  0  0  0
    3.5500    0.2308   16.9828 H   0  0  0  0  0  0  0  0  0  0  0  0
    7.0105   -1.3529   18.5681 H   0  0  0  0  0  0  0  0  0  0  0  0
    8.0445    0.3658   20.9543 C   0  0  0  0  0  0  0  0  0  0  0  0
    8.3456    1.1349   20.0641 O   0  0  0  0  0  0  0  0  0  0  0  0
    8.8378    0.1016   22.2437 C   0  0  1  0  0  0  0  0  0  0  0  0
    8.5438    1.2663   23.2369 C   0  0  0  0  0  0  0  0  0  0  0  0
    9.0857    2.5248   22.7520 N   0  0  0  0  0  0  0  0  0  0  0  0
    8.2765    3.7309   22.7460 C   0  0  0  0  0  0  0  0  0  0  0  0
    7.2873    3.7613   21.5799 C   0  0  0  0  0  0  0  0  0  0  0  0
    6.3765    4.9327   21.6422 N   0  0  2  0  0  4  0  0  0  0  0  0
    5.5091    4.9330   22.8736 C   0  0  0  0  0  0  0  0  0  0  0  0
    4.3049    5.8052   22.5386 C   0  0  0  0  0  0  0  0  0  0  0  0
    4.2422    5.9157   21.0089 C   0  0  0  0  0  0  0  0  0  0  0  0
    2.8484    5.6427   20.4116 C   0  0  0  0  0  0  0  0  0  0  0  0
    2.6134    7.0448   20.2180 O   0  0  0  0  0  0  0  0  0  0  0  0
    3.9953    7.3451   20.4713 C   0  0  0  0  0  0  0  0  0  0  0  0
    4.5691    7.5840   19.5597 H   0  0  0  0  0  0  0  0  0  0  0  0
    4.1091    8.1841   21.1716 H   0  0  0  0  0  0  0  0  0  0  0  0
    2.1124    5.1986   21.0931 H   0  0  0  0  0  0  0  0  0  0  0  0
    2.8403    5.0816   19.4641 H   0  0  0  0  0  0  0  0  0  0  0  0
    5.4266    5.1083   20.4844 C   0  0  0  0  0  0  0  0  0  0  0  0
    5.9523    5.5908   19.6586 H   0  0  0  0  0  0  0  0  0  0  0  0
    5.1119    4.1131   20.1508 H   0  0  0  0  0  0  0  0  0  0  0  0
    4.4164    6.7900   22.9982 H   0  0  0  0  0  0  0  0  0  0  0  0
    3.4002    5.3464   22.9466 H   0  0  0  0  0  0  0  0  0  0  0  0
    5.2221    3.8962   23.0621 H   0  0  0  0  0  0  0  0  0  0  0  0
    6.0792    5.2922   23.7290 H   0  0  0  0  0  0  0  0  0  0  0  0
    6.9794    5.7800   21.6548 H   0  0  0  0  0  0  0  0  0  0  0  0
    6.6815    2.8538   21.5989 H   0  0  0  0  0  0  0  0  0  0  0  0
    7.8326    3.7456   20.6335 H   0  0  0  0  0  0  0  0  0  0  0  0
    7.7591    3.8177   23.7095 H   0  0  0  0  0  0  0  0  0  0  0  0
    8.9643    4.5728   22.6670 H   0  0  0  0  0  0  0  0  0  0  0  0
   10.3905    2.6037   22.3688 C   0  0  0  0  0  0  0  0  0  0  0  0
   10.9740    3.6628   22.1744 O   0  0  0  0  0  0  0  0  0  0  0  0
   11.0770    1.2776   22.1754 C   0  0  0  0  0  0  0  0  0  0  0  0
   12.4646    1.2795   22.0621 C   0  0  0  0  0  0  0  0  0  0  0  0
   13.1277    0.1489   21.6339 C   0  0  0  0  0  0  0  0  0  0  0  0
   12.3861   -0.9885   21.3188 C   0  0  0  0  0  0  0  0  0  0  0  0
   13.2249   -2.3267   20.5983 Cl  0  0  0  0  0  0  0  0  0  0  0  0
   11.0143   -1.0376   21.5116 C   0  0  0  0  0  0  0  0  0  0  0  0
   10.3370    0.0954   21.9940 C   0  0  0  0  0  0  0  0  0  0  0  0
   10.4928   -1.9599   21.2796 H   0  0  0  0  0  0  0  0  0  0  0  0
   14.1971    0.1611   21.4797 H   0  0  0  0  0  0  0  0  0  0  0  0
   13.0240    2.1803   22.2941 H   0  0  0  0  0  0  0  0  0  0  0  0
    9.0073    1.0278   24.2053 H   0  0  0  0  0  0  0  0  0  0  0  0
    7.4655    1.3750   23.3912 H   0  0  0  0  0  0  0  0  0  0  0  0
    6.3649   -2.1894   21.9033 H   0  0  0  0  0  0  0  0  0  0  0  0
    6.0635   -0.7565   22.8962 H   0  0  0  0  0  0  0  0  0  0  0  0
    8.6929   -2.0400   22.1482 H   0  0  0  0  0  0  0  0  0  0  0  0
    7.8785   -2.5294   24.4203 H   0  0  0  0  0  0  0  0  0  0  0  0
    7.7119   -0.8082   24.7655 H   0  0  0  0  0  0  0  0  0  0  0  0
    9.3227   -1.5011   24.5305 H   0  0  0  0  0  0  0  0  0  0  0  0
  1  2  1  0
  2  3  1  0
  3  4  1  0
  4  5  1  0
  5  6  2  0
  6  7  1  0
  7  8  2  0
  8  9  1  0
  9 10  2  0
 10 11  1  0
 11 12  2  0
 12 13  1  0
 13 14  2  0
 13 15  1  0
 12 16  1  0
 11 17  1  0
 10 18  1  0
  8 19  1  0
  6 20  1  0
  4 21  1  0
 21 22  2  0
 21 23  1  0
 23 24  1  1
 24 25  1  0
 25 26  1  0
 26 27  1  0
 27 28  1  0
 28 29  1  0
 29 30  1  0
 30 31  1  0
 31 32  1  0
 32 33  1  0
 33 34  1  0
 34 35  1  0
 34 36  1  0
 32 37  1  0
 32 38  1  0
 31 39  1  0
 39 40  1  0
 39 41  1  0
 30 42  1  0
 30 43  1  0
 29 44  1  0
 29 45  1  0
 28 46  1  1
 27 47  1  0
 27 48  1  0
 26 49  1  0
 26 50  1  0
 25 51  1  0
 51 52  2  0
 51 53  1  0
 53 54  2  0
 54 55  1  0
 55 56  2  0
 56 57  1  0
 56 58  1  0
 58 59  2  0
 58 60  1  0
 55 61  1  0
 54 62  1  0
 24 63  1  0
 24 64  1  0
  3 65  1  0
  3 66  1  0
  2 67  1  6
  1 68  1  0
  1 69  1  0
  1 70  1  0
 23  2  1  0
 39 28  1  0
 59 53  1  0
 14  5  1  0
 59 23  1  0
 14  9  1  0
 34 31  1  0
M  CHG  1  28   1
M  END
>  <cnnaffinities>  (63) 
[6.74183]

>  <score>  (63) 
6.74183

>  <index>  (63) 
62

>  <Smiles>  (63) 
C([C@]1(C(N(c2c(nc(c3c(c(c(c(c23)[H])[H])[H])[H])[H])[H])C(=O)[C@]21C(N(C(C([N@@+]1(C(C(C3(C(OC3([H])[H])([H])[H])C1([H])[H])([H])[H])([H])[H])[H])([H])[H])([H])[H])C(=O)c1c(c(c(Cl)c(c21)[H])[H])[H])([H])[H])([H])[H])[H])([H])([H])[H]

>  <h>  (63) 
<NA>

>  <Training>  (63) 
True

>  <Success>  (63) 
True

>  <enamine_searched>  (63) 
False

>  <enamine_id>  (63) 
nan

$$$$

     RDKit          3D

 56 61  0  0  0  0  0  0  0  0999 V2000
    4.8598    4.6655   20.5864 C   0  0  0  0  0  0  0  0  0  0  0  0
    6.0431    4.7700   21.4081 N   0  0  0  0  0  0  0  0  0  0  0  0
    7.0657    5.6152   21.1769 C   0  0  0  0  0  0  0  0  0  0  0  0
    8.0111    5.3803   22.1443 C   0  0  0  0  0  0  0  0  0  0  0  0
    7.4601    4.3486   22.9351 C   0  0  0  0  0  0  0  0  0  0  0  0
    8.0515    3.6578   24.1385 C   0  0  0  0  0  0  0  0  0  0  0  0
    8.8053    2.4654   23.7720 N   0  0  0  0  0  0  0  0  0  0  0  0
    8.1675    1.1664   23.8206 C   0  0  0  0  0  0  0  0  0  0  0  0
    8.4701    0.2706   22.5986 C   0  0  1  0  0  0  0  0  0  0  0  0
    7.9078   -1.1401   22.9002 C   0  0  0  0  0  0  0  0  0  0  0  0
    7.0682   -1.5726   21.6941 C   0  0  0  0  0  0  0  0  0  0  0  0
    6.7831   -0.3059   21.0542 N   0  0  0  0  0  0  0  0  0  0  0  0
    5.8733   -0.1455   19.9917 C   0  0  0  0  0  0  0  0  0  0  0  0
    6.0899   -0.7679   18.7898 C   0  0  0  0  0  0  0  0  0  0  0  0
    5.2969   -0.6218   17.7043 N   0  0  0  0  0  0  0  0  0  0  0  0
    4.2393    0.1473   17.8429 C   0  0  0  0  0  0  0  0  0  0  0  0
    3.8879    0.8258   19.0462 C   0  0  0  0  0  0  0  0  0  0  0  0
    2.7107    1.6087   19.1594 C   0  0  0  0  0  0  0  0  0  0  0  0
    2.3555    2.1711   20.3549 C   0  0  0  0  0  0  0  0  0  0  0  0
    3.1945    2.0366   21.4817 C   0  0  0  0  0  0  0  0  0  0  0  0
    4.3691    1.3315   21.3895 C   0  0  0  0  0  0  0  0  0  0  0  0
    4.7300    0.6833   20.1710 C   0  0  0  0  0  0  0  0  0  0  0  0
    5.0224    1.2788   22.2547 H   0  0  0  0  0  0  0  0  0  0  0  0
    2.9245    2.5263   22.4137 H   0  0  0  0  0  0  0  0  0  0  0  0
    1.4198    2.7133   20.4448 H   0  0  0  0  0  0  0  0  0  0  0  0
    2.1013    1.7461   18.2742 H   0  0  0  0  0  0  0  0  0  0  0  0
    3.5783    0.2374   16.9809 H   0  0  0  0  0  0  0  0  0  0  0  0
    6.9646   -1.4052   18.6656 H   0  0  0  0  0  0  0  0  0  0  0  0
    7.6933    0.6892   21.3352 C   0  0  0  0  0  0  0  0  0  0  0  0
    7.8431    1.6853   20.6621 O   0  0  0  0  0  0  0  0  0  0  0  0
    6.1333   -2.0595   21.9904 H   0  0  0  0  0  0  0  0  0  0  0  0
    7.6152   -2.2600   21.0332 H   0  0  0  0  0  0  0  0  0  0  0  0
    7.2541   -1.0908   23.7773 H   0  0  0  0  0  0  0  0  0  0  0  0
    8.7073   -1.8417   23.1405 H   0  0  0  0  0  0  0  0  0  0  0  0
    9.9610    0.3286   22.3460 C   0  0  0  0  0  0  0  0  0  0  0  0
   10.6183   -0.7319   21.7299 C   0  0  0  0  0  0  0  0  0  0  0  0
   11.9846   -0.6787   21.5247 C   0  0  0  0  0  0  0  0  0  0  0  0
   12.7785   -2.0776   20.8745 Cl  0  0  0  0  0  0  0  0  0  0  0  0
   12.7382    0.4529   21.8492 C   0  0  0  0  0  0  0  0  0  0  0  0
   12.0787    1.5342   22.3983 C   0  0  0  0  0  0  0  0  0  0  0  0
   10.7100    1.4661   22.6571 C   0  0  0  0  0  0  0  0  0  0  0  0
   10.0795    2.6501   23.3038 C   0  0  0  0  0  0  0  0  0  0  0  0
   10.6675    3.7172   23.3986 O   0  0  0  0  0  0  0  0  0  0  0  0
   12.5782    2.4727   22.6135 H   0  0  0  0  0  0  0  0  0  0  0  0
   13.8099    0.4748   21.6829 H   0  0  0  0  0  0  0  0  0  0  0  0
   10.0695   -1.6166   21.4233 H   0  0  0  0  0  0  0  0  0  0  0  0
    8.5274    0.6166   24.6979 H   0  0  0  0  0  0  0  0  0  0  0  0
    7.0834    1.3077   23.9162 H   0  0  0  0  0  0  0  0  0  0  0  0
    8.7285    4.3221   24.6802 H   0  0  0  0  0  0  0  0  0  0  0  0
    7.2551    3.3622   24.8313 H   0  0  0  0  0  0  0  0  0  0  0  0
    6.2619    3.9857   22.4774 N   0  0  0  0  0  0  0  0  0  0  0  0
    8.9760    5.8589   22.2587 H   0  0  0  0  0  0  0  0  0  0  0  0
    7.0390    6.3218   20.3539 H   0  0  0  0  0  0  0  0  0  0  0  0
    4.8278    3.7006   20.0642 H   0  0  0  0  0  0  0  0  0  0  0  0
    3.9573    4.8235   21.1816 H   0  0  0  0  0  0  0  0  0  0  0  0
    4.9394    5.4785   19.8715 H   0  0  0  0  0  0  0  0  0  0  0  0
  1  2  1  0
  2  3  1  0
  3  4  2  0
  4  5  1  0
  5  6  1  0
  6  7  1  0
  7  8  1  0
  9  8  1  1
  9 10  1  0
 10 11  1  0
 11 12  1  0
 12 13  1  0
 13 14  2  0
 14 15  1  0
 15 16  2  0
 16 17  1  0
 17 18  2  0
 18 19  1  0
 19 20  2  0
 20 21  1  0
 21 22  2  0
 21 23  1  0
 20 24  1  0
 19 25  1  0
 18 26  1  0
 16 27  1  0
 14 28  1  0
 12 29  1  0
 29 30  2  0
 11 31  1  0
 11 32  1  0
 10 33  1  0
 10 34  1  0
  9 35  1  0
 35 36  2  0
 36 37  1  0
 37 38  1  0
 37 39  2  0
 39 40  1  0
 40 41  2  0
 41 42  1  0
 42 43  2  0
 40 44  1  0
 39 45  1  0
 36 46  1  0
  8 47  1  0
  8 48  1  0
  6 49  1  0
  6 50  1  0
  5 51  2  0
  4 52  1  0
  3 53  1  0
  1 54  1  0
  1 55  1  0
  1 56  1  0
 51  2  1  0
 42  7  1  0
 29  9  1  0
 41 35  1  0
 22 13  1  0
 22 17  1  0
M  END
>  <cnnaffinities>  (64) 
[5.9511]

>  <score>  (64) 
5.9511

>  <index>  (64) 
63

>  <Smiles>  (64) 
C(n1c(c(c(C(N2C([C@]3(C(C(N(c4c(nc(c5c(c(c(c(c45)[H])[H])[H])[H])[H])[H])C3=O)([H])[H])([H])[H])c3c(c(Cl)c(c(c3C2=O)[H])[H])[H])([H])[H])([H])[H])n1)[H])[H])([H])([H])[H]

>  <h>  (64) 
<NA>

>  <Training>  (64) 
True

>  <Success>  (64) 
True

>  <enamine_searched>  (64) 
False

>  <enamine_id>  (64) 
nan

$$$$

     RDKit          3D

 66 71  0  0  0  0  0  0  0  0999 V2000
    8.1344   -1.4868   24.2207 C   0  0  0  0  0  0  0  0  0  0  0  0
    8.1595   -1.1517   22.7354 C   0  0  1  0  0  0  0  0  0  0  0  0
    6.7714   -1.2505   22.0817 C   0  0  0  0  0  0  0  0  0  0  0  0
    6.8597   -0.3241   20.9775 N   0  0  0  0  0  0  0  0  0  0  0  0
    5.8862   -0.1706   19.9598 C   0  0  0  0  0  0  0  0  0  0  0  0
    6.0884   -0.7778   18.7485 C   0  0  0  0  0  0  0  0  0  0  0  0
    5.2649   -0.6470   17.6806 N   0  0  0  0  0  0  0  0  0  0  0  0
    4.1991    0.1000   17.8374 C   0  0  0  0  0  0  0  0  0  0  0  0
    3.8587    0.7719   19.0476 C   0  0  0  0  0  0  0  0  0  0  0  0
    2.6799    1.5528   19.1694 C   0  0  0  0  0  0  0  0  0  0  0  0
    2.3605    2.1568   20.3530 C   0  0  0  0  0  0  0  0  0  0  0  0
    3.2264    2.0477   21.4643 C   0  0  0  0  0  0  0  0  0  0  0  0
    4.3837    1.3105   21.3734 C   0  0  0  0  0  0  0  0  0  0  0  0
    4.7239    0.6372   20.1605 C   0  0  0  0  0  0  0  0  0  0  0  0
    5.0399    1.2428   22.2378 H   0  0  0  0  0  0  0  0  0  0  0  0
    2.9673    2.5464   22.3968 H   0  0  0  0  0  0  0  0  0  0  0  0
    1.4419    2.7323   20.4428 H   0  0  0  0  0  0  0  0  0  0  0  0
    2.0496    1.6735   18.2940 H   0  0  0  0  0  0  0  0  0  0  0  0
    3.5186    0.1915   16.9874 H   0  0  0  0  0  0  0  0  0  0  0  0
    6.9652   -1.4084   18.6062 H   0  0  0  0  0  0  0  0  0  0  0  0
    7.9380    0.5195   21.0461 C   0  0  0  0  0  0  0  0  0  0  0  0
    8.2010    1.3583   20.2087 O   0  0  0  0  0  0  0  0  0  0  0  0
    8.7067    0.2501   22.3495 C   0  0  1  0  0  0  0  0  0  0  0  0
    8.3420    1.3321   23.3945 C   0  0  0  0  0  0  0  0  0  0  0  0
    8.8620    2.6360   23.0341 N   0  0  0  0  0  0  0  0  0  0  0  0
    7.9987    3.7967   23.1266 C   0  0  0  0  0  0  0  0  0  0  0  0
    7.1896    3.9801   21.8440 C   0  0  0  0  0  0  0  0  0  0  0  0
    6.2494    5.1182   21.8757 N   0  0  0  0  0  4  0  0  0  0  0  0
    5.6269    5.3626   20.5255 C   0  0  0  0  0  0  0  0  0  0  0  0
    4.7400    6.6252   20.5775 C   0  0  0  0  0  0  0  0  0  0  0  0
    4.5652    7.0461   21.9159 O   0  0  0  0  0  0  0  0  0  0  0  0
    4.0532    5.9462   22.6415 C   0  0  0  0  0  0  0  0  0  0  0  0
    5.2122    5.0025   22.9742 C   0  0  0  0  0  0  0  0  0  0  0  0
    4.8864    3.9610   23.0600 H   0  0  0  0  0  0  0  0  0  0  0  0
    5.6755    5.3022   23.9182 H   0  0  0  0  0  0  0  0  0  0  0  0
    3.2962    5.4492   22.0169 H   0  0  0  0  0  0  0  0  0  0  0  0
    3.5590    6.3138   23.5465 H   0  0  0  0  0  0  0  0  0  0  0  0
    5.1596    7.4683   20.0215 H   0  0  0  0  0  0  0  0  0  0  0  0
    3.7545    6.4049   20.1376 H   0  0  0  0  0  0  0  0  0  0  0  0
    5.0321    4.4816   20.2505 H   0  0  0  0  0  0  0  0  0  0  0  0
    6.4222    5.4829   19.7831 H   0  0  0  0  0  0  0  0  0  0  0  0
    6.7938    5.9751   22.0776 H   0  0  0  0  0  0  0  0  0  0  0  0
    6.6258    3.0644   21.6442 H   0  0  0  0  0  0  0  0  0  0  0  0
    7.8691    4.0954   20.9980 H   0  0  0  0  0  0  0  0  0  0  0  0
    7.3378    3.6458   23.9879 H   0  0  0  0  0  0  0  0  0  0  0  0
    8.6465    4.6526   23.3240 H   0  0  0  0  0  0  0  0  0  0  0  0
   10.1693    2.8004   22.6768 C   0  0  0  0  0  0  0  0  0  0  0  0
   10.7230    3.8903   22.6121 O   0  0  0  0  0  0  0  0  0  0  0  0
   10.8954    1.5350   22.3284 C   0  0  0  0  0  0  0  0  0  0  0  0
   12.2616    1.6406   22.0762 C   0  0  0  0  0  0  0  0  0  0  0  0
   12.9758    0.5395   21.6481 C   0  0  0  0  0  0  0  0  0  0  0  0
   12.2869   -0.6543   21.4179 C   0  0  0  0  0  0  0  0  0  0  0  0
   13.1286   -2.0011   20.6983 Cl  0  0  0  0  0  0  0  0  0  0  0  0
   10.9197   -0.7546   21.6099 C   0  0  0  0  0  0  0  0  0  0  0  0
   10.2057    0.3298   22.1314 C   0  0  0  0  0  0  0  0  0  0  0  0
   10.4250   -1.6807   21.3293 H   0  0  0  0  0  0  0  0  0  0  0  0
   14.0439    0.5932   21.4606 H   0  0  0  0  0  0  0  0  0  0  0  0
   12.7262    2.6162   22.1943 H   0  0  0  0  0  0  0  0  0  0  0  0
    8.7738    1.0213   24.3537 H   0  0  0  0  0  0  0  0  0  0  0  0
    7.2540    1.4039   23.5119 H   0  0  0  0  0  0  0  0  0  0  0  0
    5.9852   -0.9560   22.7914 H   0  0  0  0  0  0  0  0  0  0  0  0
    6.5458   -2.2605   21.7228 H   0  0  0  0  0  0  0  0  0  0  0  0
    8.7960   -1.8790   22.2308 H   0  0  0  0  0  0  0  0  0  0  0  0
    7.8044   -2.5178   24.3821 H   0  0  0  0  0  0  0  0  0  0  0  0
    7.4291   -0.8322   24.7441 H   0  0  0  0  0  0  0  0  0  0  0  0
    9.1167   -1.3717   24.6922 H   0  0  0  0  0  0  0  0  0  0  0  0
  1  2  1  0
  2  3  1  0
  3  4  1  0
  4  5  1  0
  5  6  2  0
  6  7  1  0
  7  8  2  0
  8  9  1  0
  9 10  2  0
 10 11  1  0
 11 12  2  0
 12 13  1  0
 13 14  2  0
 13 15  1  0
 12 16  1  0
 11 17  1  0
 10 18  1  0
  8 19  1  0
  6 20  1  0
  4 21  1  0
 21 22  2  0
 21 23  1  0
 23 24  1  1
 24 25  1  0
 25 26  1  0
 26 27  1  0
 27 28  1  0
 28 29  1  0
 29 30  1  0
 30 31  1  0
 31 32  1  0
 32 33  1  0
 33 34  1  0
 33 35  1  0
 32 36  1  0
 32 37  1  0
 30 38  1  0
 30 39  1  0
 29 40  1  0
 29 41  1  0
 28 42  1  0
 27 43  1  0
 27 44  1  0
 26 45  1  0
 26 46  1  0
 25 47  1  0
 47 48  2  0
 47 49  1  0
 49 50  2  0
 50 51  1  0
 51 52  2  0
 52 53  1  0
 52 54  1  0
 54 55  2  0
 54 56  1  0
 51 57  1  0
 50 58  1  0
 24 59  1  0
 24 60  1  0
  3 61  1  0
  3 62  1  0
  2 63  1  6
  1 64  1  0
  1 65  1  0
  1 66  1  0
 23  2  1  0
 33 28  1  0
 55 49  1  0
 14  5  1  0
 55 23  1  0
 14  9  1  0
M  CHG  1  28   1
M  END
>  <cnnaffinities>  (65) 
[6.19513, 6.21302, 6.29992, 6.43401, 6.25678]

>  <score>  (65) 
6.19513

>  <index>  (65) 
64

>  <Smiles>  (65) 
C([C@]1(C(N(c2c(nc(c3c(c(c(c(c23)[H])[H])[H])[H])[H])[H])C(=O)[C@]21C(N(C(C([N+]1(C(C(OC(C1([H])[H])([H])[H])([H])[H])([H])[H])[H])([H])[H])([H])[H])C(=O)c1c(c(c(Cl)c(c21)[H])[H])[H])([H])[H])([H])[H])[H])([H])([H])[H]

>  <h>  (65) 
<NA>

>  <Training>  (65) 
True

>  <Success>  (65) 
True

>  <enamine_searched>  (65) 
False

>  <enamine_id>  (65) 
nan

$$$$

     RDKit          3D

 54 59  0  0  0  0  0  0  0  0999 V2000
   13.3041   -2.9847   23.8066 C   0  0  0  0  0  0  0  0  0  0  0  0
   13.0501   -1.6038   24.1416 N   0  0  0  0  0  0  0  0  0  0  0  0
   12.4665   -0.8364   23.1855 C   0  0  0  0  0  0  0  0  0  0  0  0
   12.2964   -1.2168   22.0387 O   0  0  0  0  0  0  0  0  0  0  0  0
   11.9942    0.5298   23.6518 C   0  0  0  0  0  0  0  0  0  0  0  0
   10.5766    0.4759   23.9223 N   0  0  0  0  0  0  0  0  0  0  0  0
   10.1055    0.0261   25.1442 C   0  0  0  0  0  0  0  0  0  0  0  0
   10.8002   -0.5467   25.9689 O   0  0  0  0  0  0  0  0  0  0  0  0
    8.6803    0.4828   25.2282 C   0  0  0  0  0  0  0  0  0  0  0  0
    7.8116    0.4367   26.2922 C   0  0  0  0  0  0  0  0  0  0  0  0
    6.5784    1.1256   26.1914 C   0  0  0  0  0  0  0  0  0  0  0  0
    6.3056    1.9268   25.1130 C   0  0  0  0  0  0  0  0  0  0  0  0
    4.7986    2.7783   25.0151 Cl  0  0  0  0  0  0  0  0  0  0  0  0
    7.3113    2.2432   24.0713 C   0  0  0  0  0  0  0  0  0  0  0  0
    8.3233    1.1179   23.9646 C   0  0  1  0  0  0  0  0  0  0  0  0
    9.5744    1.1220   23.1381 C   0  0  2  0  0  0  0  0  0  0  0  0
    8.4167    0.3058   22.6365 C   0  0  2  0  0  0  0  0  0  0  0  0
    7.6873    0.7745   21.3901 C   0  0  0  0  0  0  0  0  0  0  0  0
    7.7325    1.8528   20.8367 O   0  0  0  0  0  0  0  0  0  0  0  0
    6.8850   -0.2748   20.9720 N   0  0  0  0  0  0  0  0  0  0  0  0
    5.9094   -0.1403   19.9542 C   0  0  0  0  0  0  0  0  0  0  0  0
    6.0768   -0.7949   18.7602 C   0  0  0  0  0  0  0  0  0  0  0  0
    5.2547   -0.6637   17.6933 N   0  0  0  0  0  0  0  0  0  0  0  0
    4.1954    0.0982   17.8428 C   0  0  0  0  0  0  0  0  0  0  0  0
    3.8560    0.7668   19.0543 C   0  0  0  0  0  0  0  0  0  0  0  0
    2.6673    1.5359   19.1843 C   0  0  0  0  0  0  0  0  0  0  0  0
    2.3437    2.1291   20.3744 C   0  0  0  0  0  0  0  0  0  0  0  0
    3.2057    1.9987   21.4891 C   0  0  0  0  0  0  0  0  0  0  0  0
    4.3653    1.2691   21.3868 C   0  0  0  0  0  0  0  0  0  0  0  0
    4.7272    0.6433   20.1583 C   0  0  0  0  0  0  0  0  0  0  0  0
    5.0052    1.1608   22.2581 H   0  0  0  0  0  0  0  0  0  0  0  0
    2.9625    2.4878   22.4304 H   0  0  0  0  0  0  0  0  0  0  0  0
    1.4250    2.7061   20.4633 H   0  0  0  0  0  0  0  0  0  0  0  0
    2.0324    1.6609   18.3138 H   0  0  0  0  0  0  0  0  0  0  0  0
    3.5290    0.1924   16.9854 H   0  0  0  0  0  0  0  0  0  0  0  0
    6.9355   -1.4522   18.6238 H   0  0  0  0  0  0  0  0  0  0  0  0
    7.1818   -1.5332   21.6310 C   0  0  0  0  0  0  0  0  0  0  0  0
    8.3319   -1.1704   22.5449 C   0  0  0  0  0  0  0  0  0  0  0  0
    9.0916   -2.0997   23.1176 C   0  0  0  0  0  0  0  0  0  0  0  0
    8.8168   -3.4065   22.9529 F   0  0  0  0  0  0  0  0  0  0  0  0
    9.9735   -1.9211   23.7236 H   0  0  0  0  0  0  0  0  0  0  0  0
    6.3090   -1.8800   22.2011 H   0  0  0  0  0  0  0  0  0  0  0  0
    7.4520   -2.3124   20.9084 H   0  0  0  0  0  0  0  0  0  0  0  0
    9.8858    1.9711   22.5350 H   0  0  0  0  0  0  0  0  0  0  0  0
    7.8395    3.1750   24.3527 H   0  0  0  0  0  0  0  0  0  0  0  0
    6.8378    2.4623   23.1046 H   0  0  0  0  0  0  0  0  0  0  0  0
    5.8506    1.0550   26.9976 H   0  0  0  0  0  0  0  0  0  0  0  0
    8.0356   -0.1314   27.1880 H   0  0  0  0  0  0  0  0  0  0  0  0
   12.1809    1.2471   22.8479 H   0  0  0  0  0  0  0  0  0  0  0  0
   12.5243    0.8290   24.5585 H   0  0  0  0  0  0  0  0  0  0  0  0
   12.8865   -1.3628   25.1065 H   0  0  0  0  0  0  0  0  0  0  0  0
   13.6678   -3.5160   24.6866 H   0  0  0  0  0  0  0  0  0  0  0  0
   14.0492   -3.0331   23.0133 H   0  0  0  0  0  0  0  0  0  0  0  0
   12.3930   -3.4567   23.4257 H   0  0  0  0  0  0  0  0  0  0  0  0
  1  2  1  0
  2  3  1  0
  3  4  2  0
  3  5  1  0
  5  6  1  0
  6  7  1  0
  7  8  2  0
  7  9  1  0
  9 10  2  0
 10 11  1  0
 11 12  2  0
 12 13  1  0
 12 14  1  0
 15 14  1  1
 15 16  1  0
 16 17  1  0
 17 18  1  6
 18 19  2  0
 18 20  1  0
 20 21  1  0
 21 22  2  0
 22 23  1  0
 23 24  2  0
 24 25  1  0
 25 26  2  0
 26 27  1  0
 27 28  2  0
 28 29  1  0
 29 30  2  0
 29 31  1  0
 28 32  1  0
 27 33  1  0
 26 34  1  0
 24 35  1  0
 22 36  1  0
 20 37  1  0
 37 38  1  0
 38 39  2  0
 39 40  1  0
 39 41  1  0
 37 42  1  0
 37 43  1  0
 16 44  1  6
 14 45  1  0
 14 46  1  0
 11 47  1  0
 10 48  1  0
  5 49  1  0
  5 50  1  0
  2 51  1  0
  1 52  1  0
  1 53  1  0
  1 54  1  0
 16  6  1  0
 38 17  1  0
 15  9  1  0
 30 21  1  0
 17 15  1  0
 30 25  1  0
M  END
>  <cnnaffinities>  (66) 
[5.9545]

>  <score>  (66) 
5.9545

>  <index>  (66) 
65

>  <Smiles>  (66) 
C(N(C(=O)C(N1C(=O)C2=C(C(=C(Cl)C([C@]32[C@@]1([C@@]13C(=O)N(c2c(nc(c3c(c(c(c(c23)[H])[H])[H])[H])[H])[H])C(/C/1=C(\F)/[H])([H])[H])[H])([H])[H])[H])[H])([H])[H])[H])([H])([H])[H]

>  <h>  (66) 
<NA>

>  <Training>  (66) 
True

>  <Success>  (66) 
True

>  <enamine_searched>  (66) 
False

>  <enamine_id>  (66) 
nan

$$$$

     RDKit          3D

 47 50  0  0  0  0  0  0  0  0999 V2000
    5.3166   -2.0058   21.8448 O   0  0  0  0  0  0  0  0  0  0  0  0
    6.4487   -1.5554   21.9060 C   0  0  0  0  0  0  0  0  0  0  0  0
    6.8718   -0.3514   21.0668 C   0  0  0  0  0  0  0  0  0  0  0  0
    5.9154   -0.1152   19.9539 C   0  0  0  0  0  0  0  0  0  0  0  0
    6.1221   -0.7295   18.7521 C   0  0  0  0  0  0  0  0  0  0  0  0
    5.3195   -0.6107   17.6662 N   0  0  0  0  0  0  0  0  0  0  0  0
    4.2477    0.1355   17.8188 C   0  0  0  0  0  0  0  0  0  0  0  0
    3.8843    0.7903   19.0287 C   0  0  0  0  0  0  0  0  0  0  0  0
    2.7199    1.5861   19.1500 C   0  0  0  0  0  0  0  0  0  0  0  0
    2.3920    2.1614   20.3496 C   0  0  0  0  0  0  0  0  0  0  0  0
    3.2186    1.9778   21.4809 C   0  0  0  0  0  0  0  0  0  0  0  0
    4.3647    1.2365   21.3857 C   0  0  0  0  0  0  0  0  0  0  0  0
    4.7318    0.6404   20.1493 C   0  0  0  0  0  0  0  0  0  0  0  0
    4.9889    1.0930   22.2646 H   0  0  0  0  0  0  0  0  0  0  0  0
    2.9467    2.4472   22.4238 H   0  0  0  0  0  0  0  0  0  0  0  0
    1.4891    2.7543   20.4428 H   0  0  0  0  0  0  0  0  0  0  0  0
    2.1096    1.7492   18.2665 H   0  0  0  0  0  0  0  0  0  0  0  0
    3.5900    0.2282   16.9557 H   0  0  0  0  0  0  0  0  0  0  0  0
    7.0051   -1.3585   18.6274 H   0  0  0  0  0  0  0  0  0  0  0  0
    6.9741    0.5269   21.7134 H   0  0  0  0  0  0  0  0  0  0  0  0
    7.8573   -0.5739   20.6422 H   0  0  0  0  0  0  0  0  0  0  0  0
    7.4197   -2.1003   22.6975 N   0  0  0  0  0  0  0  0  0  0  0  0
    7.2977   -3.5120   23.0555 C   0  0  0  0  0  0  0  0  0  0  0  0
    7.7170   -3.7396   24.5054 C   0  0  0  0  0  0  0  0  0  0  0  0
    9.0491   -3.0549   24.8761 C   0  0  1  0  0  0  0  0  0  0  0  0
   10.2293   -3.8434   24.2713 C   0  0  0  0  0  0  0  0  0  0  0  0
   11.6049   -3.2152   24.5178 C   0  0  0  0  0  0  0  0  0  0  0  0
   11.6349   -1.7439   24.1460 C   0  0  0  0  0  0  0  0  0  0  0  0
   11.6247   -1.6525   22.7662 F   0  0  0  0  0  0  0  0  0  0  0  0
   12.8254   -1.1880   24.5368 F   0  0  0  0  0  0  0  0  0  0  0  0
   10.4693   -0.9447   24.7144 C   0  0  0  0  0  0  0  0  0  0  0  0
    9.0986   -1.5834   24.4053 C   0  0  1  0  0  0  0  0  0  0  0  0
    8.7352   -1.5034   22.9168 C   0  0  0  0  0  0  0  0  0  0  0  0
    8.7522   -0.4504   22.6090 H   0  0  0  0  0  0  0  0  0  0  0  0
    9.4957   -2.0179   22.3186 H   0  0  0  0  0  0  0  0  0  0  0  0
    8.3385   -1.0069   24.9508 H   0  0  0  0  0  0  0  0  0  0  0  0
   10.5162    0.0830   24.3312 H   0  0  0  0  0  0  0  0  0  0  0  0
   10.5990   -0.9073   25.8039 H   0  0  0  0  0  0  0  0  0  0  0  0
   11.9053   -3.3267   25.5634 H   0  0  0  0  0  0  0  0  0  0  0  0
   12.3667   -3.6908   23.9011 H   0  0  0  0  0  0  0  0  0  0  0  0
   10.0924   -3.9229   23.1828 H   0  0  0  0  0  0  0  0  0  0  0  0
   10.2152   -4.8577   24.6863 H   0  0  0  0  0  0  0  0  0  0  0  0
    9.1281   -3.0448   25.9787 H   0  0  0  0  0  0  0  0  0  0  0  0
    7.7975   -4.8197   24.6904 H   0  0  0  0  0  0  0  0  0  0  0  0
    6.9106   -3.3779   25.1507 H   0  0  0  0  0  0  0  0  0  0  0  0
    6.2519   -3.8053   22.9094 H   0  0  0  0  0  0  0  0  0  0  0  0
    7.9099   -4.1213   22.3679 H   0  0  0  0  0  0  0  0  0  0  0  0
  1  2  2  0
  2  3  1  0
  3  4  1  0
  4  5  2  0
  5  6  1  0
  6  7  2  0
  7  8  1  0
  8  9  2  0
  9 10  1  0
 10 11  2  0
 11 12  1  0
 12 13  2  0
 12 14  1  0
 11 15  1  0
 10 16  1  0
  9 17  1  0
  7 18  1  0
  5 19  1  0
  3 20  1  0
  3 21  1  0
  2 22  1  0
 22 23  1  0
 23 24  1  0
 24 25  1  0
 25 26  1  0
 26 27  1  0
 27 28  1  0
 28 29  1  0
 28 30  1  0
 28 31  1  0
 31 32  1  0
 32 33  1  0
 33 34  1  0
 33 35  1  0
 32 36  1  1
 31 37  1  0
 31 38  1  0
 27 39  1  0
 27 40  1  0
 26 41  1  0
 26 42  1  0
 25 43  1  1
 24 44  1  0
 24 45  1  0
 23 46  1  0
 23 47  1  0
 13  4  1  0
 33 22  1  0
 13  8  1  0
 32 25  1  0
M  END
>  <cnnaffinities>  (67) 
[5.82527, 5.78101, 5.78599, 5.38251, 5.38252, 5.86894, 5.56959, 5.56957, 5.67149, 5.47461]

>  <score>  (67) 
5.82527

>  <index>  (67) 
66

>  <Smiles>  (67) 
O=C(C(c1c(nc(c2c(c(c(c(c12)[H])[H])[H])[H])[H])[H])([H])[H])N1C(C([C@]2(C(C(C(F)(F)C([C@]2(C1([H])[H])[H])([H])[H])([H])[H])([H])[H])[H])([H])[H])([H])[H]

>  <h>  (67) 
<NA>

>  <Training>  (67) 
True

>  <Success>  (67) 
True

>  <enamine_searched>  (67) 
False

>  <enamine_id>  (67) 
nan

$$$$

     RDKit          3D

 69 74  0  0  0  0  0  0  0  0999 V2000
    5.5150    4.7939   22.1795 C   0  0  0  0  0  0  0  0  0  0  0  0
    6.7723    4.2493   21.6350 N   0  0  0  0  0  4  0  0  0  0  0  0
    7.9611    4.7736   22.3572 C   0  0  0  0  0  0  0  0  0  0  0  0
    8.2870    4.0426   23.6629 C   0  0  0  0  0  0  0  0  0  0  0  0
    8.8609    2.7259   23.4212 N   0  0  0  0  0  0  0  0  0  0  0  0
    8.0993    1.5256   23.7183 C   0  0  0  0  0  0  0  0  0  0  0  0
    8.3595    0.3892   22.6955 C   0  0  2  0  0  0  0  0  0  0  0  0
    7.5913    0.7462   21.4133 C   0  0  0  0  0  0  0  0  0  0  0  0
    7.5471    1.8401   20.8760 O   0  0  0  0  0  0  0  0  0  0  0  0
    6.8735   -0.3297   20.9802 N   0  0  0  0  0  0  0  0  0  0  0  0
    5.9073   -0.1447   19.9530 C   0  0  0  0  0  0  0  0  0  0  0  0
    6.0889   -0.7675   18.7487 C   0  0  0  0  0  0  0  0  0  0  0  0
    5.2641   -0.6261   17.6890 N   0  0  0  0  0  0  0  0  0  0  0  0
    4.2093    0.1364   17.8487 C   0  0  0  0  0  0  0  0  0  0  0  0
    3.8793    0.8062   19.0611 C   0  0  0  0  0  0  0  0  0  0  0  0
    2.7050    1.5929   19.1879 C   0  0  0  0  0  0  0  0  0  0  0  0
    2.3815    2.1773   20.3808 C   0  0  0  0  0  0  0  0  0  0  0  0
    3.2373    2.0270   21.4947 C   0  0  0  0  0  0  0  0  0  0  0  0
    4.4021    1.3117   21.3838 C   0  0  0  0  0  0  0  0  0  0  0  0
    4.7518    0.6683   20.1601 C   0  0  0  0  0  0  0  0  0  0  0  0
    5.0678    1.2332   22.2397 H   0  0  0  0  0  0  0  0  0  0  0  0
    2.9762    2.4864   22.4464 H   0  0  0  0  0  0  0  0  0  0  0  0
    1.4621    2.7483   20.4751 H   0  0  0  0  0  0  0  0  0  0  0  0
    2.0763    1.7192   18.3125 H   0  0  0  0  0  0  0  0  0  0  0  0
    3.5396    0.2343   16.9953 H   0  0  0  0  0  0  0  0  0  0  0  0
    6.9571   -1.4054   18.5992 H   0  0  0  0  0  0  0  0  0  0  0  0
    6.6908   -1.3461   22.0046 C   0  0  0  0  0  0  0  0  0  0  0  0
    7.7124   -0.9809   23.1002 C   0  0  2  0  0  0  0  0  0  0  0  0
    7.0916   -1.0740   24.4991 C   0  0  0  0  0  0  0  0  0  0  0  0
    5.9608   -0.2290   24.6075 O   0  0  0  0  0  0  0  0  0  0  0  0
    5.4511   -0.1588   25.9207 C   0  0  0  0  0  0  0  0  0  0  0  0
    4.2056    0.6959   25.9858 C   0  0  0  0  0  0  0  0  0  0  0  0
    3.7521    0.7100   27.2885 F   0  0  0  0  0  0  0  0  0  0  0  0
    3.1716    0.7185   24.9179 C   0  0  0  0  0  0  0  0  0  0  0  0
    4.0101    1.9506   25.2099 C   0  0  0  0  0  0  0  0  0  0  0  0
    4.7913    2.2267   24.5057 H   0  0  0  0  0  0  0  0  0  0  0  0
    3.5145    2.7669   25.7239 H   0  0  0  0  0  0  0  0  0  0  0  0
    3.3883    0.1630   24.0095 H   0  0  0  0  0  0  0  0  0  0  0  0
    2.1353    0.7413   25.2375 H   0  0  0  0  0  0  0  0  0  0  0  0
    5.2051   -1.1672   26.2822 H   0  0  0  0  0  0  0  0  0  0  0  0
    6.2018    0.2655   26.6044 H   0  0  0  0  0  0  0  0  0  0  0  0
    6.7945   -2.1158   24.6948 H   0  0  0  0  0  0  0  0  0  0  0  0
    7.8477   -0.8081   25.2537 H   0  0  0  0  0  0  0  0  0  0  0  0
    8.5123   -1.7268   23.1109 H   0  0  0  0  0  0  0  0  0  0  0  0
    6.8509   -2.3473   21.5919 H   0  0  0  0  0  0  0  0  0  0  0  0
    5.6666   -1.3038   22.4018 H   0  0  0  0  0  0  0  0  0  0  0  0
    9.8621    0.2825   22.4241 C   0  0  0  0  0  0  0  0  0  0  0  0
   10.4252   -0.8513   21.8163 C   0  0  0  0  0  0  0  0  0  0  0  0
   11.7839   -0.9079   21.5635 C   0  0  0  0  0  0  0  0  0  0  0  0
   12.4441   -2.2456   20.6725 Cl  0  0  0  0  0  0  0  0  0  0  0  0
   12.6441    0.1151   21.9599 C   0  0  0  0  0  0  0  0  0  0  0  0
   12.0964    1.2530   22.5096 C   0  0  0  0  0  0  0  0  0  0  0  0
   10.7171    1.3570   22.6853 C   0  0  0  0  0  0  0  0  0  0  0  0
   10.1830    2.6879   23.0989 C   0  0  0  0  0  0  0  0  0  0  0  0
   10.9014    3.6826   23.1190 O   0  0  0  0  0  0  0  0  0  0  0  0
   12.7172    2.0979   22.7866 H   0  0  0  0  0  0  0  0  0  0  0  0
   13.7115    0.0282   21.7982 H   0  0  0  0  0  0  0  0  0  0  0  0
    9.8203   -1.6955   21.5047 H   0  0  0  0  0  0  0  0  0  0  0  0
    8.3329    1.1686   24.7315 H   0  0  0  0  0  0  0  0  0  0  0  0
    7.0416    1.7819   23.6653 H   0  0  0  0  0  0  0  0  0  0  0  0
    9.0350    4.6200   24.2139 H   0  0  0  0  0  0  0  0  0  0  0  0
    7.4029    3.9196   24.2975 H   0  0  0  0  0  0  0  0  0  0  0  0
    8.8310    4.6794   21.7081 H   0  0  0  0  0  0  0  0  0  0  0  0
    7.8018    5.8366   22.5722 H   0  0  0  0  0  0  0  0  0  0  0  0
    6.7982    3.2159   21.6216 H   0  0  0  0  0  0  0  0  0  0  0  0
    6.8547    4.5200   20.6458 H   0  0  0  0  0  0  0  0  0  0  0  0
    5.3891    4.5237   23.2341 H   0  0  0  0  0  0  0  0  0  0  0  0
    4.6507    4.4194   21.6231 H   0  0  0  0  0  0  0  0  0  0  0  0
    5.5313    5.8928   22.1339 H   0  0  0  0  0  0  0  0  0  0  0  0
  1  2  1  0
  2  3  1  0
  3  4  1  0
  4  5  1  0
  5  6  1  0
  7  6  1  1
  7  8  1  0
  8  9  2  0
  8 10  1  0
 10 11  1  0
 11 12  2  0
 12 13  1  0
 13 14  2  0
 14 15  1  0
 15 16  2  0
 16 17  1  0
 17 18  2  0
 18 19  1  0
 19 20  2  0
 19 21  1  0
 18 22  1  0
 17 23  1  0
 16 24  1  0
 14 25  1  0
 12 26  1  0
 10 27  1  0
 27 28  1  0
 28 29  1  0
 29 30  1  0
 30 31  1  0
 31 32  1  0
 32 33  1  0
 32 34  1  0
 34 35  1  0
 35 36  1  0
 35 37  1  0
 34 38  1  0
 34 39  1  0
 31 40  1  0
 31 41  1  0
 29 42  1  0
 29 43  1  0
 28 44  1  1
 27 45  1  0
 27 46  1  0
  7 47  1  0
 47 48  2  0
 48 49  1  0
 49 50  1  0
 49 51  2  0
 51 52  1  0
 52 53  2  0
 53 54  1  0
 54 55  2  0
 52 56  1  0
 51 57  1  0
 48 58  1  0
  6 59  1  0
  6 60  1  0
  4 61  1  0
  4 62  1  0
  3 63  1  0
  3 64  1  0
  2 65  1  0
  2 66  1  0
  1 67  1  0
  1 68  1  0
  1 69  1  0
 54  5  1  0
 28  7  1  0
 35 32  1  0
 53 47  1  0
 20 11  1  0
 20 15  1  0
M  CHG  1   2   1
M  END
>  <cnnaffinities>  (68) 
[6.53424, 6.64635, 6.5586, 6.5946]

>  <score>  (68) 
6.53424

>  <index>  (68) 
67

>  <Smiles>  (68) 
C([N+](C(C(N1C([C@@]2(C(=O)N(c3c(nc(c4c(c(c(c(c34)[H])[H])[H])[H])[H])[H])C([C@@]2(C(OC(C2(F)C(C2([H])[H])([H])[H])([H])[H])([H])[H])[H])([H])[H])c2c(c(Cl)c(c(c2C1=O)[H])[H])[H])([H])[H])([H])[H])([H])[H])([H])[H])([H])([H])[H]

>  <h>  (68) 
<NA>

>  <Training>  (68) 
True

>  <Success>  (68) 
True

>  <enamine_searched>  (68) 
False

>  <enamine_id>  (68) 
nan

$$$$

     RDKit          3D

 57 62  0  0  0  0  0  0  0  0999 V2000
    4.7914    4.8847   20.4961 C   0  0  0  0  0  0  0  0  0  0  0  0
    5.9397    4.7418   21.4376 C   0  0  0  0  0  0  0  0  0  0  0  0
    6.1538    3.9567   22.4564 N   0  0  0  0  0  0  0  0  0  0  0  0
    7.3922    4.3770   22.8948 C   0  0  0  0  0  0  0  0  0  0  0  0
    8.1060    3.7562   24.0615 C   0  0  0  0  0  0  0  0  0  0  0  0
    8.8364    2.5701   23.6524 N   0  0  0  0  0  0  0  0  0  0  0  0
    8.2464    1.2574   23.8274 C   0  0  0  0  0  0  0  0  0  0  0  0
    8.4672    0.3214   22.6111 C   0  0  2  0  0  0  0  0  0  0  0  0
    7.6424    0.7605   21.3851 C   0  0  0  0  0  0  0  0  0  0  0  0
    7.7011    1.8208   20.8051 O   0  0  0  0  0  0  0  0  0  0  0  0
    6.8106   -0.2795   21.0274 N   0  0  0  0  0  0  0  0  0  0  0  0
    5.8791   -0.1479   19.9765 C   0  0  0  0  0  0  0  0  0  0  0  0
    6.0765   -0.7857   18.7797 C   0  0  0  0  0  0  0  0  0  0  0  0
    5.2709   -0.6504   17.6989 N   0  0  0  0  0  0  0  0  0  0  0  0
    4.2108    0.1141   17.8345 C   0  0  0  0  0  0  0  0  0  0  0  0
    3.8606    0.7854   19.0414 C   0  0  0  0  0  0  0  0  0  0  0  0
    2.6850    1.5715   19.1592 C   0  0  0  0  0  0  0  0  0  0  0  0
    2.3446    2.1491   20.3511 C   0  0  0  0  0  0  0  0  0  0  0  0
    3.1913    2.0168   21.4715 C   0  0  0  0  0  0  0  0  0  0  0  0
    4.3527    1.2930   21.3792 C   0  0  0  0  0  0  0  0  0  0  0  0
    4.7134    0.6529   20.1599 C   0  0  0  0  0  0  0  0  0  0  0  0
    5.0004    1.2170   22.2472 H   0  0  0  0  0  0  0  0  0  0  0  0
    2.9324    2.5140   22.4031 H   0  0  0  0  0  0  0  0  0  0  0  0
    1.4225    2.7150   20.4423 H   0  0  0  0  0  0  0  0  0  0  0  0
    2.0680    1.7081   18.2796 H   0  0  0  0  0  0  0  0  0  0  0  0
    3.5508    0.2180   16.9709 H   0  0  0  0  0  0  0  0  0  0  0  0
    6.9482   -1.4253   18.6450 H   0  0  0  0  0  0  0  0  0  0  0  0
    7.1829   -1.5444   21.6135 C   0  0  0  0  0  0  0  0  0  0  0  0
    7.9690   -1.1417   22.8788 C   0  0  2  0  0  0  0  0  0  0  0  0
    7.1567   -1.3708   24.1570 C   0  0  0  0  0  0  0  0  0  0  0  0
    6.8911   -2.4299   24.2359 H   0  0  0  0  0  0  0  0  0  0  0  0
    7.7509   -1.1264   25.0415 H   0  0  0  0  0  0  0  0  0  0  0  0
    6.2319   -0.7863   24.1849 H   0  0  0  0  0  0  0  0  0  0  0  0
    8.8424   -1.7875   22.9914 H   0  0  0  0  0  0  0  0  0  0  0  0
    6.2838   -2.1284   21.8325 H   0  0  0  0  0  0  0  0  0  0  0  0
    7.8081   -2.1422   20.9335 H   0  0  0  0  0  0  0  0  0  0  0  0
    9.9492    0.3932   22.2538 C   0  0  0  0  0  0  0  0  0  0  0  0
   10.6050   -0.6970   21.6707 C   0  0  0  0  0  0  0  0  0  0  0  0
   11.9790   -0.6621   21.5217 C   0  0  0  0  0  0  0  0  0  0  0  0
   12.6040   -1.7916   21.1519 F   0  0  0  0  0  0  0  0  0  0  0  0
   12.7393    0.4807   21.7545 C   0  0  0  0  0  0  0  0  0  0  0  0
   12.0685    1.5940   22.2234 C   0  0  0  0  0  0  0  0  0  0  0  0
   10.7011    1.5469   22.4923 C   0  0  0  0  0  0  0  0  0  0  0  0
   10.0782    2.7547   23.1061 C   0  0  0  0  0  0  0  0  0  0  0  0
   10.6726    3.8202   23.1632 O   0  0  0  0  0  0  0  0  0  0  0  0
   12.5796    2.5373   22.3658 H   0  0  0  0  0  0  0  0  0  0  0  0
   13.8154    0.4719   21.6206 H   0  0  0  0  0  0  0  0  0  0  0  0
   10.0700   -1.5913   21.3600 H   0  0  0  0  0  0  0  0  0  0  0  0
    7.1816    1.3942   24.0266 H   0  0  0  0  0  0  0  0  0  0  0  0
    8.6923    0.7827   24.7081 H   0  0  0  0  0  0  0  0  0  0  0  0
    8.8172    4.4678   24.4885 H   0  0  0  0  0  0  0  0  0  0  0  0
    7.3738    3.4993   24.8337 H   0  0  0  0  0  0  0  0  0  0  0  0
    7.8972    5.3610   22.2129 N   0  0  0  0  0  0  0  0  0  0  0  0
    6.9493    5.6057   21.2383 O   0  0  0  0  0  0  0  0  0  0  0  0
    4.9401    5.8353   19.9898 H   0  0  0  0  0  0  0  0  0  0  0  0
    3.8295    4.9196   21.0129 H   0  0  0  0  0  0  0  0  0  0  0  0
    4.7567    4.0596   19.7771 H   0  0  0  0  0  0  0  0  0  0  0  0
  1  2  1  0
  2  3  2  0
  3  4  1  0
  4  5  1  0
  5  6  1  0
  6  7  1  0
  8  7  1  1
  8  9  1  0
  9 10  2  0
  9 11  1  0
 11 12  1  0
 12 13  2  0
 13 14  1  0
 14 15  2  0
 15 16  1  0
 16 17  2  0
 17 18  1  0
 18 19  2  0
 19 20  1  0
 20 21  2  0
 20 22  1  0
 19 23  1  0
 18 24  1  0
 17 25  1  0
 15 26  1  0
 13 27  1  0
 11 28  1  0
 28 29  1  0
 29 30  1  0
 30 31  1  0
 30 32  1  0
 30 33  1  0
 29 34  1  1
 28 35  1  0
 28 36  1  0
  8 37  1  0
 37 38  2  0
 38 39  1  0
 39 40  1  0
 39 41  2  0
 41 42  1  0
 42 43  2  0
 43 44  1  0
 44 45  2  0
 42 46  1  0
 41 47  1  0
 38 48  1  0
  7 49  1  0
  7 50  1  0
  5 51  1  0
  5 52  1  0
  4 53  2  0
 53 54  1  0
  1 55  1  0
  1 56  1  0
  1 57  1  0
 54  2  1  0
 44  6  1  0
 29  8  1  0
 43 37  1  0
 21 12  1  0
 21 16  1  0
M  END
>  <cnnaffinities>  (69) 
[6.17938, 6.15326, 6.1755, 6.15245, 6.21956]

>  <score>  (69) 
6.17938

>  <index>  (69) 
68

>  <Smiles>  (69) 
C(c1nc(C(N2C([C@@]3(C(=O)N(c4c(nc(c5c(c(c(c(c45)[H])[H])[H])[H])[H])[H])C([C@@]3(C([H])([H])[H])[H])([H])[H])c3c(c(F)c(c(c3C2=O)[H])[H])[H])([H])[H])([H])[H])no1)([H])([H])[H]

>  <h>  (69) 
<NA>

>  <Training>  (69) 
True

>  <Success>  (69) 
True

>  <enamine_searched>  (69) 
False

>  <enamine_id>  (69) 
nan

$$$$

     RDKit          3D

 64 68  0  0  0  0  0  0  0  0999 V2000
    3.7930    3.1662   26.9143 C   0  0  0  0  0  0  0  0  0  0  0  0
    3.2664    1.7305   26.7811 C   0  0  0  0  0  0  0  0  0  0  0  0
    4.1674    0.9513   25.8527 C   0  0  0  0  0  0  0  0  0  0  0  0
    3.9129    0.8505   24.6645 O   0  0  0  0  0  0  0  0  0  0  0  0
    5.3235    0.4385   26.4234 N   0  0  0  0  0  0  0  0  0  0  0  0
    5.3104   -0.0125   27.8222 C   0  0  0  0  0  0  0  0  0  0  0  0
    6.6588   -0.5819   28.2143 C   0  0  0  0  0  0  0  0  0  0  0  0
    7.1154   -1.5839   27.1570 C   0  0  0  0  0  0  0  0  0  0  0  0
    7.3515   -0.7966   25.9021 C   0  0  0  0  0  0  0  0  0  0  0  0
    8.4696   -0.9763   25.0982 C   0  0  0  0  0  0  0  0  0  0  0  0
    8.6558   -0.2118   23.9548 C   0  0  0  0  0  0  0  0  0  0  0  0
    7.7215    0.7764   23.6516 C   0  0  0  0  0  0  0  0  0  0  0  0
    7.8731    1.5216   22.4558 N   0  0  0  0  0  0  0  0  0  0  0  0
    8.3328    2.9041   22.5490 C   0  0  0  0  0  0  0  0  0  0  0  0
    7.1882    3.8743   22.7437 C   0  0  0  0  0  0  0  0  0  0  0  0
    6.2798    4.0375   21.7029 C   0  0  0  0  0  0  0  0  0  0  0  0
    5.1865    4.8832   21.8394 C   0  0  0  0  0  0  0  0  0  0  0  0
    4.9529    5.5431   23.0405 C   0  0  0  0  0  0  0  0  0  0  0  0
    5.8477    5.3489   24.0825 C   0  0  0  0  0  0  0  0  0  0  0  0
    5.5237    6.1008   25.6253 Cl  0  0  0  0  0  0  0  0  0  0  0  0
    6.9763    4.5482   23.9453 C   0  0  0  0  0  0  0  0  0  0  0  0
    7.6577    4.4400   24.7860 H   0  0  0  0  0  0  0  0  0  0  0  0
    4.0925    6.1941   23.1648 H   0  0  0  0  0  0  0  0  0  0  0  0
    4.5026    5.0156   21.0055 H   0  0  0  0  0  0  0  0  0  0  0  0
    6.4131    3.4556   20.7964 H   0  0  0  0  0  0  0  0  0  0  0  0
    8.8666    3.1234   21.6188 H   0  0  0  0  0  0  0  0  0  0  0  0
    9.0269    2.9630   23.3902 H   0  0  0  0  0  0  0  0  0  0  0  0
    7.6895    0.9444   21.2233 C   0  0  0  0  0  0  0  0  0  0  0  0
    8.1426    1.4448   20.2149 O   0  0  0  0  0  0  0  0  0  0  0  0
    6.8757   -0.3550   21.1254 C   0  0  0  0  0  0  0  0  0  0  0  0
    5.8657   -0.2097   20.0225 C   0  0  0  0  0  0  0  0  0  0  0  0
    6.0650   -0.7777   18.7911 C   0  0  0  0  0  0  0  0  0  0  0  0
    5.2592   -0.6071   17.7110 N   0  0  0  0  0  0  0  0  0  0  0  0
    4.2185    0.1839   17.8549 C   0  0  0  0  0  0  0  0  0  0  0  0
    3.9195    0.8640   19.0698 C   0  0  0  0  0  0  0  0  0  0  0  0
    2.8316    1.7538   19.2096 C   0  0  0  0  0  0  0  0  0  0  0  0
    2.1447    2.0553   18.0958 F   0  0  0  0  0  0  0  0  0  0  0  0
    2.4410    2.2802   20.4055 C   0  0  0  0  0  0  0  0  0  0  0  0
    3.2453    2.0186   21.5308 C   0  0  0  0  0  0  0  0  0  0  0  0
    4.3905    1.2685   21.4232 C   0  0  0  0  0  0  0  0  0  0  0  0
    4.7381    0.6427   20.1978 C   0  0  0  0  0  0  0  0  0  0  0  0
    5.0166    1.1354   22.2977 H   0  0  0  0  0  0  0  0  0  0  0  0
    2.9616    2.4259   22.4932 H   0  0  0  0  0  0  0  0  0  0  0  0
    1.5367    2.8795   20.4703 H   0  0  0  0  0  0  0  0  0  0  0  0
    3.5465    0.3096   17.0057 H   0  0  0  0  0  0  0  0  0  0  0  0
    6.9401   -1.4157   18.6363 H   0  0  0  0  0  0  0  0  0  0  0  0
    6.4154   -0.5953   22.0907 H   0  0  0  0  0  0  0  0  0  0  0  0
    7.5991   -1.1476   20.8881 H   0  0  0  0  0  0  0  0  0  0  0  0
    6.6308    1.0166   24.4652 C   0  0  0  0  0  0  0  0  0  0  0  0
    6.4315    0.2089   25.5828 C   0  0  0  0  0  0  0  0  0  0  0  0
    5.9330    1.8088   24.2126 H   0  0  0  0  0  0  0  0  0  0  0  0
    9.5158   -0.3495   23.3024 H   0  0  0  0  0  0  0  0  0  0  0  0
    9.2078   -1.7237   25.3783 H   0  0  0  0  0  0  0  0  0  0  0  0
    8.0383   -2.1037   27.4260 H   0  0  0  0  0  0  0  0  0  0  0  0
    6.3491   -2.3590   27.0032 H   0  0  0  0  0  0  0  0  0  0  0  0
    7.3714    0.2499   28.2304 H   0  0  0  0  0  0  0  0  0  0  0  0
    6.6132   -1.0232   29.2150 H   0  0  0  0  0  0  0  0  0  0  0  0
    4.5475   -0.7934   27.9234 H   0  0  0  0  0  0  0  0  0  0  0  0
    5.0365    0.8183   28.4848 H   0  0  0  0  0  0  0  0  0  0  0  0
    2.2801    1.7270   26.3164 H   0  0  0  0  0  0  0  0  0  0  0  0
    3.1887    1.2476   27.7610 H   0  0  0  0  0  0  0  0  0  0  0  0
    4.7745    3.1860   27.4017 H   0  0  0  0  0  0  0  0  0  0  0  0
    3.1033    3.7785   27.5026 H   0  0  0  0  0  0  0  0  0  0  0  0
    3.9050    3.6270   25.9265 H   0  0  0  0  0  0  0  0  0  0  0  0
  1  2  1  0
  2  3  1  0
  3  4  2  0
  3  5  1  0
  5  6  1  0
  6  7  1  0
  7  8  1  0
  8  9  1  0
  9 10  2  0
 10 11  1  0
 11 12  2  0
 12 13  1  0
 13 14  1  0
 14 15  1  0
 15 16  2  0
 16 17  1  0
 17 18  2  0
 18 19  1  0
 19 20  1  0
 19 21  2  0
 21 22  1  0
 18 23  1  0
 17 24  1  0
 16 25  1  0
 14 26  1  0
 14 27  1  0
 13 28  1  0
 28 29  2  0
 28 30  1  0
 30 31  1  0
 31 32  2  0
 32 33  1  0
 33 34  2  0
 34 35  1  0
 35 36  2  0
 36 37  1  0
 36 38  1  0
 38 39  2  0
 39 40  1  0
 40 41  2  0
 40 42  1  0
 39 43  1  0
 38 44  1  0
 34 45  1  0
 32 46  1  0
 30 47  1  0
 30 48  1  0
 12 49  1  0
 49 50  2  0
 49 51  1  0
 11 52  1  0
 10 53  1  0
  8 54  1  0
  8 55  1  0
  7 56  1  0
  7 57  1  0
  6 58  1  0
  6 59  1  0
  2 60  1  0
  2 61  1  0
  1 62  1  0
  1 63  1  0
  1 64  1  0
 50  5  1  0
 50  9  1  0
 21 15  1  0
 41 31  1  0
 41 35  1  0
M  END
>  <cnnaffinities>  (70) 
[6.22617, 6.32806, 6.58774, 6.72164, 6.46541, 6.84748, 6.9595]

>  <score>  (70) 
6.22617

>  <index>  (70) 
69

>  <Smiles>  (70) 
C(C(C(=O)N1C(C(C(c2c(c(c(N(C(c3c(c(c(c(Cl)c3[H])[H])[H])[H])([H])[H])C(=O)C(c3c(nc(c4c(F)c(c(c(c34)[H])[H])[H])[H])[H])([H])[H])c(c12)[H])[H])[H])([H])[H])([H])[H])([H])[H])([H])[H])([H])([H])[H]

>  <h>  (70) 
<NA>

>  <Training>  (70) 
True

>  <Success>  (70) 
True

>  <enamine_searched>  (70) 
False

>  <enamine_id>  (70) 
nan

$$$$

     RDKit          3D

 57 62  0  0  0  0  0  0  0  0999 V2000
    9.9938   -0.8048   21.8511 C   0  0  0  0  0  0  0  0  0  0  0  0
    8.7472   -0.0404   22.3264 C   0  0  1  0  0  0  0  0  0  0  0  0
    7.9861    0.5660   21.1258 C   0  0  0  0  0  0  0  0  0  0  0  0
    6.8723   -0.3319   20.9393 N   0  0  0  0  0  0  0  0  0  0  0  0
    5.9014   -0.1627   19.9253 C   0  0  0  0  0  0  0  0  0  0  0  0
    6.1077   -0.7477   18.7062 C   0  0  0  0  0  0  0  0  0  0  0  0
    5.2882   -0.5962   17.6396 N   0  0  0  0  0  0  0  0  0  0  0  0
    4.2194    0.1456   17.8109 C   0  0  0  0  0  0  0  0  0  0  0  0
    3.8733    0.7861   19.0369 C   0  0  0  0  0  0  0  0  0  0  0  0
    2.7017    1.5777   19.1630 C   0  0  0  0  0  0  0  0  0  0  0  0
    2.3972    2.1779   20.3531 C   0  0  0  0  0  0  0  0  0  0  0  0
    3.2511    2.0212   21.4706 C   0  0  0  0  0  0  0  0  0  0  0  0
    4.3932    1.2630   21.3801 C   0  0  0  0  0  0  0  0  0  0  0  0
    4.7301    0.6259   20.1455 C   0  0  0  0  0  0  0  0  0  0  0  0
    5.0478    1.1532   22.2474 H   0  0  0  0  0  0  0  0  0  0  0  0
    2.9949    2.5084   22.4072 H   0  0  0  0  0  0  0  0  0  0  0  0
    1.4974    2.7807   20.4467 H   0  0  0  0  0  0  0  0  0  0  0  0
    2.0710    1.7091   18.2899 H   0  0  0  0  0  0  0  0  0  0  0  0
    3.5525    0.2618   16.9573 H   0  0  0  0  0  0  0  0  0  0  0  0
    6.9785   -1.3840   18.5592 H   0  0  0  0  0  0  0  0  0  0  0  0
    6.6108   -1.1538   22.0084 C   0  0  0  0  0  0  0  0  0  0  0  0
    5.6866   -1.9301   22.0427 O   0  0  0  0  0  0  0  0  0  0  0  0
    7.6782   -0.8985   23.0958 C   0  0  1  0  0  0  0  0  0  0  0  0
    8.2222   -2.2623   23.5937 C   0  0  0  0  0  0  0  0  0  0  0  0
    7.2314   -2.9874   24.3703 N   0  0  0  0  0  0  0  0  0  0  0  0
    7.3077   -4.4312   24.3422 C   0  0  0  0  0  0  0  0  0  0  0  0
    8.5266   -4.9743   25.0106 C   0  0  0  0  0  0  0  0  0  0  0  0
    9.3195   -5.8997   24.4356 N   0  0  0  0  0  0  0  0  0  0  0  0
   10.2523   -6.1716   25.3040 N   0  0  0  0  0  0  0  0  0  0  0  0
    9.9924   -5.4417   26.3647 N   0  0  0  0  0  0  0  0  0  0  0  0
   10.7343   -5.5372   27.6039 C   0  0  0  0  0  0  0  0  0  0  0  0
   10.0863   -5.9541   28.3753 H   0  0  0  0  0  0  0  0  0  0  0  0
   11.0958   -4.5489   27.8971 H   0  0  0  0  0  0  0  0  0  0  0  0
   11.5643   -6.2125   27.4310 H   0  0  0  0  0  0  0  0  0  0  0  0
    8.9259   -4.6729   26.2367 N   0  0  0  0  0  0  0  0  0  0  0  0
    7.2988   -4.8000   23.3108 H   0  0  0  0  0  0  0  0  0  0  0  0
    6.4194   -4.8055   24.8537 H   0  0  0  0  0  0  0  0  0  0  0  0
    6.6131   -2.3857   25.4375 C   0  0  0  0  0  0  0  0  0  0  0  0
    6.0961   -3.0200   26.3487 O   0  0  0  0  0  0  0  0  0  0  0  0
    6.5922   -0.8890   25.4054 C   0  0  0  0  0  0  0  0  0  0  0  0
    6.0689   -0.2415   26.5259 C   0  0  0  0  0  0  0  0  0  0  0  0
    5.9556    1.1342   26.5559 C   0  0  0  0  0  0  0  0  0  0  0  0
    6.3737    1.8487   25.4397 C   0  0  0  0  0  0  0  0  0  0  0  0
    6.2469    3.1900   25.4505 F   0  0  0  0  0  0  0  0  0  0  0  0
    6.9191    1.2313   24.3255 C   0  0  0  0  0  0  0  0  0  0  0  0
    7.0606   -0.1667   24.2980 C   0  0  0  0  0  0  0  0  0  0  0  0
    7.2370    1.8686   23.5062 H   0  0  0  0  0  0  0  0  0  0  0  0
    5.5448    1.6553   27.4123 H   0  0  0  0  0  0  0  0  0  0  0  0
    5.7537   -0.8535   27.3667 H   0  0  0  0  0  0  0  0  0  0  0  0
    8.5030   -2.8892   22.7404 H   0  0  0  0  0  0  0  0  0  0  0  0
    9.1029   -2.0861   24.2282 H   0  0  0  0  0  0  0  0  0  0  0  0
    8.5895    0.6099   20.2159 H   0  0  0  0  0  0  0  0  0  0  0  0
    7.6381    1.5890   21.3293 H   0  0  0  0  0  0  0  0  0  0  0  0
    9.1110    0.7556   22.9841 H   0  0  0  0  0  0  0  0  0  0  0  0
    9.7443   -1.6244   21.1686 H   0  0  0  0  0  0  0  0  0  0  0  0
   10.6725   -0.1297   21.3183 H   0  0  0  0  0  0  0  0  0  0  0  0
   10.5525   -1.2225   22.6938 H   0  0  0  0  0  0  0  0  0  0  0  0
  1  2  1  0
  2  3  1  0
  3  4  1  0
  4  5  1  0
  5  6  2  0
  6  7  1  0
  7  8  2  0
  8  9  1  0
  9 10  2  0
 10 11  1  0
 11 12  2  0
 12 13  1  0
 13 14  2  0
 13 15  1  0
 12 16  1  0
 11 17  1  0
 10 18  1  0
  8 19  1  0
  6 20  1  0
  4 21  1  0
 21 22  2  0
 21 23  1  0
 23 24  1  1
 24 25  1  0
 25 26  1  0
 26 27  1  0
 27 28  1  0
 28 29  2  0
 29 30  1  0
 30 31  1  0
 31 32  1  0
 31 33  1  0
 31 34  1  0
 30 35  1  0
 26 36  1  0
 26 37  1  0
 25 38  1  0
 38 39  2  0
 38 40  1  0
 40 41  2  0
 41 42  1  0
 42 43  2  0
 43 44  1  0
 43 45  1  0
 45 46  2  0
 45 47  1  0
 42 48  1  0
 41 49  1  0
 24 50  1  0
 24 51  1  0
  3 52  1  0
  3 53  1  0
  2 54  1  1
  1 55  1  0
  1 56  1  0
  1 57  1  0
 23  2  1  0
 35 27  2  0
 46 40  1  0
 14  5  1  0
 46 23  1  0
 14  9  1  0
M  END
>  <cnnaffinities>  (71) 
[6.11628, 6.13413]

>  <score>  (71) 
6.11628

>  <index>  (71) 
70

>  <Smiles>  (71) 
C([C@]1(C(N(c2c(nc(c3c(c(c(c(c23)[H])[H])[H])[H])[H])[H])C(=O)[C@]21C(N(C(c1nnn(C([H])([H])[H])n1)([H])[H])C(=O)c1c(c(c(F)c(c21)[H])[H])[H])([H])[H])([H])[H])[H])([H])([H])[H]

>  <h>  (71) 
<NA>

>  <Training>  (71) 
True

>  <Success>  (71) 
True

>  <enamine_searched>  (71) 
False

>  <enamine_id>  (71) 
nan

$$$$

     RDKit          3D

 59 64  0  0  0  0  0  0  0  0999 V2000
    7.9797   -1.5658   24.2256 C   0  0  0  0  0  0  0  0  0  0  0  0
    8.1045   -1.1258   22.7693 C   0  0  1  0  0  0  0  0  0  0  0  0
    6.7934   -1.3249   21.9955 C   0  0  0  0  0  0  0  0  0  0  0  0
    6.8480   -0.3096   20.9761 N   0  0  0  0  0  0  0  0  0  0  0  0
    5.8832   -0.1669   19.9529 C   0  0  0  0  0  0  0  0  0  0  0  0
    6.0833   -0.7870   18.7495 C   0  0  0  0  0  0  0  0  0  0  0  0
    5.2638   -0.6535   17.6782 N   0  0  0  0  0  0  0  0  0  0  0  0
    4.1989    0.0985   17.8264 C   0  0  0  0  0  0  0  0  0  0  0  0
    3.8559    0.7677   19.0377 C   0  0  0  0  0  0  0  0  0  0  0  0
    2.6801    1.5539   19.1645 C   0  0  0  0  0  0  0  0  0  0  0  0
    2.3600    2.1443   20.3550 C   0  0  0  0  0  0  0  0  0  0  0  0
    3.2185    2.0153   21.4707 C   0  0  0  0  0  0  0  0  0  0  0  0
    4.3755    1.2793   21.3717 C   0  0  0  0  0  0  0  0  0  0  0  0
    4.7179    0.6341   20.1493 C   0  0  0  0  0  0  0  0  0  0  0  0
    5.0436    1.2298   22.2285 H   0  0  0  0  0  0  0  0  0  0  0  0
    2.9670    2.5148   22.4034 H   0  0  0  0  0  0  0  0  0  0  0  0
    1.4475    2.7284   20.4509 H   0  0  0  0  0  0  0  0  0  0  0  0
    2.0566    1.6941   18.2870 H   0  0  0  0  0  0  0  0  0  0  0  0
    3.5226    0.1955   16.9735 H   0  0  0  0  0  0  0  0  0  0  0  0
    6.9561   -1.4247   18.6117 H   0  0  0  0  0  0  0  0  0  0  0  0
    7.8133    0.6515   21.1733 C   0  0  0  0  0  0  0  0  0  0  0  0
    8.0237    1.5674   20.4127 O   0  0  0  0  0  0  0  0  0  0  0  0
    8.5446    0.3445   22.4948 C   0  0  1  0  0  0  0  0  0  0  0  0
    8.0750    1.2932   23.6212 C   0  0  0  0  0  0  0  0  0  0  0  0
    8.5721    2.6470   23.4591 N   0  0  0  0  0  0  0  0  0  0  0  0
    7.7254    3.7700   23.8083 C   0  0  0  0  0  0  0  0  0  0  0  0
    7.1296    4.4230   22.5948 C   0  0  0  0  0  0  0  0  0  0  0  0
    6.1899    3.8370   21.8770 N   0  0  0  0  0  0  0  0  0  0  0  0
    5.8630    4.7531   20.9052 C   0  0  0  0  0  0  0  0  0  0  0  0
    6.6264    5.8824   21.0372 C   0  0  0  0  0  0  0  0  0  0  0  0
    7.4275    5.6692   22.1335 N   0  0  0  0  0  0  0  0  0  0  0  0
    8.2747    6.6571   22.7814 C   0  0  0  0  0  0  0  0  0  0  0  0
    8.2998    7.5671   22.1789 H   0  0  0  0  0  0  0  0  0  0  0  0
    7.8637    6.9196   23.7610 H   0  0  0  0  0  0  0  0  0  0  0  0
    9.2917    6.2803   22.9001 H   0  0  0  0  0  0  0  0  0  0  0  0
    6.7235    6.7926   20.4634 H   0  0  0  0  0  0  0  0  0  0  0  0
    5.1075    4.5624   20.1568 H   0  0  0  0  0  0  0  0  0  0  0  0
    8.3251    4.4573   24.4121 H   0  0  0  0  0  0  0  0  0  0  0  0
    6.8964    3.3814   24.4118 H   0  0  0  0  0  0  0  0  0  0  0  0
    9.8802    2.9083   23.1690 C   0  0  0  0  0  0  0  0  0  0  0  0
   10.3708    4.0301   23.2463 O   0  0  0  0  0  0  0  0  0  0  0  0
   10.6698    1.7366   22.6904 C   0  0  0  0  0  0  0  0  0  0  0  0
   12.0314    1.9402   22.4701 C   0  0  0  0  0  0  0  0  0  0  0  0
   12.8139    0.9249   21.9542 C   0  0  0  0  0  0  0  0  0  0  0  0
   12.1814   -0.2711   21.6251 C   0  0  0  0  0  0  0  0  0  0  0  0
   12.9260   -1.2825   21.1387 F   0  0  0  0  0  0  0  0  0  0  0  0
   10.8166   -0.4563   21.7255 C   0  0  0  0  0  0  0  0  0  0  0  0
   10.0392    0.5366   22.3305 C   0  0  0  0  0  0  0  0  0  0  0  0
   10.3741   -1.3672   21.3311 H   0  0  0  0  0  0  0  0  0  0  0  0
   13.8816    1.0334   21.7830 H   0  0  0  0  0  0  0  0  0  0  0  0
   12.4370    2.9156   22.7244 H   0  0  0  0  0  0  0  0  0  0  0  0
    8.4360    0.8803   24.5708 H   0  0  0  0  0  0  0  0  0  0  0  0
    6.9793    1.3268   23.6578 H   0  0  0  0  0  0  0  0  0  0  0  0
    6.7248   -2.3185   21.5378 H   0  0  0  0  0  0  0  0  0  0  0  0
    5.9207   -1.1890   22.6535 H   0  0  0  0  0  0  0  0  0  0  0  0
    8.8500   -1.7671   22.2998 H   0  0  0  0  0  0  0  0  0  0  0  0
    7.1766   -1.0137   24.7284 H   0  0  0  0  0  0  0  0  0  0  0  0
    7.7277   -2.6313   24.2853 H   0  0  0  0  0  0  0  0  0  0  0  0
    8.9061   -1.4142   24.7913 H   0  0  0  0  0  0  0  0  0  0  0  0
  1  2  1  0
  2  3  1  0
  3  4  1  0
  4  5  1  0
  5  6  2  0
  6  7  1  0
  7  8  2  0
  8  9  1  0
  9 10  2  0
 10 11  1  0
 11 12  2  0
 12 13  1  0
 13 14  2  0
 13 15  1  0
 12 16  1  0
 11 17  1  0
 10 18  1  0
  8 19  1  0
  6 20  1  0
  4 21  1  0
 21 22  2  0
 21 23  1  0
 23 24  1  1
 24 25  1  0
 25 26  1  0
 26 27  1  0
 27 28  2  0
 28 29  1  0
 29 30  2  0
 30 31  1  0
 31 32  1  0
 32 33  1  0
 32 34  1  0
 32 35  1  0
 30 36  1  0
 29 37  1  0
 26 38  1  0
 26 39  1  0
 25 40  1  0
 40 41  2  0
 40 42  1  0
 42 43  2  0
 43 44  1  0
 44 45  2  0
 45 46  1  0
 45 47  1  0
 47 48  2  0
 47 49  1  0
 44 50  1  0
 43 51  1  0
 24 52  1  0
 24 53  1  0
  3 54  1  0
  3 55  1  0
  2 56  1  6
  1 57  1  0
  1 58  1  0
  1 59  1  0
 23  2  1  0
 31 27  1  0
 48 42  1  0
 14  5  1  0
 48 23  1  0
 14  9  1  0
M  END
>  <cnnaffinities>  (72) 
[6.02154, 6.11455, 6.12123]

>  <score>  (72) 
6.02154

>  <index>  (72) 
71

>  <Smiles>  (72) 
C([C@]1(C(N(c2c(nc(c3c(c(c(c(c23)[H])[H])[H])[H])[H])[H])C(=O)[C@]21C(N(C(c1nc(c(n1C([H])([H])[H])[H])[H])([H])[H])C(=O)c1c(c(c(F)c(c21)[H])[H])[H])([H])[H])([H])[H])[H])([H])([H])[H]

>  <h>  (72) 
<NA>

>  <Training>  (72) 
True

>  <Success>  (72) 
True

>  <enamine_searched>  (72) 
False

>  <enamine_id>  (72) 
nan

$$$$

     RDKit          3D

 60 64  0  0  0  0  0  0  0  0999 V2000
    8.2728    6.0643   26.0528 C   0  0  0  0  0  0  0  0  0  0  0  0
    8.2730    5.4596   24.7315 N   0  0  0  0  0  0  0  0  0  0  0  0
    7.5889    4.3096   24.5247 C   0  0  0  0  0  0  0  0  0  0  0  0
    6.8698    3.8028   25.3746 O   0  0  0  0  0  0  0  0  0  0  0  0
    7.7183    3.6971   23.1227 C   0  0  0  0  0  0  0  0  0  0  0  0
    8.6319    2.5793   23.0459 N   0  0  0  0  0  0  0  0  0  0  0  0
    8.2095    1.2605   23.4739 C   0  0  0  0  0  0  0  0  0  0  0  0
    8.6600    0.1954   22.4380 C   0  0  2  0  0  0  0  0  0  0  0  0
    7.9419    0.4937   21.0996 C   0  0  0  0  0  0  0  0  0  0  0  0
    8.2432    1.3311   20.2834 O   0  0  0  0  0  0  0  0  0  0  0  0
    6.8488   -0.3377   20.9948 N   0  0  0  0  0  0  0  0  0  0  0  0
    5.8937   -0.1638   19.9628 C   0  0  0  0  0  0  0  0  0  0  0  0
    6.0727   -0.7988   18.7624 C   0  0  0  0  0  0  0  0  0  0  0  0
    5.2464   -0.6683   17.6960 N   0  0  0  0  0  0  0  0  0  0  0  0
    4.1859    0.0882   17.8441 C   0  0  0  0  0  0  0  0  0  0  0  0
    3.8374    0.7547   19.0546 C   0  0  0  0  0  0  0  0  0  0  0  0
    2.6539    1.5324   19.1789 C   0  0  0  0  0  0  0  0  0  0  0  0
    2.3505    2.1617   20.3528 C   0  0  0  0  0  0  0  0  0  0  0  0
    3.2309    2.0616   21.4521 C   0  0  0  0  0  0  0  0  0  0  0  0
    4.3850    1.3222   21.3569 C   0  0  0  0  0  0  0  0  0  0  0  0
    4.7178    0.6377   20.1526 C   0  0  0  0  0  0  0  0  0  0  0  0
    5.0597    1.2634   22.2064 H   0  0  0  0  0  0  0  0  0  0  0  0
    3.0044    2.5911   22.3714 H   0  0  0  0  0  0  0  0  0  0  0  0
    1.4418    2.7501   20.4406 H   0  0  0  0  0  0  0  0  0  0  0  0
    2.0083    1.6374   18.3163 H   0  0  0  0  0  0  0  0  0  0  0  0
    3.5251    0.1810   16.9827 H   0  0  0  0  0  0  0  0  0  0  0  0
    6.9251   -1.4582   18.6183 H   0  0  0  0  0  0  0  0  0  0  0  0
    6.7050   -1.2673   22.0905 C   0  0  0  0  0  0  0  0  0  0  0  0
    8.1054   -1.2272   22.7589 C   0  0  2  0  0  0  0  0  0  0  0  0
    8.0630   -1.6185   24.1615 N   0  0  0  0  0  0  0  0  0  0  0  0
    7.5786   -2.8404   24.5416 C   0  0  0  0  0  0  0  0  0  0  0  0
    7.1477   -3.6498   23.7287 O   0  0  0  0  0  0  0  0  0  0  0  0
    7.5979   -3.1307   26.0334 C   0  0  0  0  0  0  0  0  0  0  0  0
    6.8973   -3.9471   26.2205 H   0  0  0  0  0  0  0  0  0  0  0  0
    7.3123   -2.2718   26.6514 H   0  0  0  0  0  0  0  0  0  0  0  0
    8.5903   -3.4559   26.3699 H   0  0  0  0  0  0  0  0  0  0  0  0
    8.5267   -1.0486   24.8519 H   0  0  0  0  0  0  0  0  0  0  0  0
    8.7216   -1.9546   22.2216 H   0  0  0  0  0  0  0  0  0  0  0  0
    5.9319   -0.9578   22.8104 H   0  0  0  0  0  0  0  0  0  0  0  0
    6.4418   -2.2656   21.7317 H   0  0  0  0  0  0  0  0  0  0  0  0
   10.1636    0.3545   22.2819 C   0  0  0  0  0  0  0  0  0  0  0  0
   10.9714   -0.7068   21.8560 C   0  0  0  0  0  0  0  0  0  0  0  0
   12.3307   -0.5129   21.6800 C   0  0  0  0  0  0  0  0  0  0  0  0
   13.3235   -1.8339   21.1387 Cl  0  0  0  0  0  0  0  0  0  0  0  0
   12.9256    0.7292   21.8910 C   0  0  0  0  0  0  0  0  0  0  0  0
   12.1295    1.7946   22.2636 C   0  0  0  0  0  0  0  0  0  0  0  0
   10.7604    1.6207   22.4456 C   0  0  0  0  0  0  0  0  0  0  0  0
    9.9377    2.8346   22.7625 C   0  0  0  0  0  0  0  0  0  0  0  0
   10.3881    3.9794   22.7542 O   0  0  0  0  0  0  0  0  0  0  0  0
   12.5327    2.7920   22.4057 H   0  0  0  0  0  0  0  0  0  0  0  0
   13.9898    0.8568   21.7325 H   0  0  0  0  0  0  0  0  0  0  0  0
   10.5578   -1.6825   21.6241 H   0  0  0  0  0  0  0  0  0  0  0  0
    7.1193    1.2804   23.5715 H   0  0  0  0  0  0  0  0  0  0  0  0
    8.6500    1.0312   24.4551 H   0  0  0  0  0  0  0  0  0  0  0  0
    8.0330    4.4349   22.3786 H   0  0  0  0  0  0  0  0  0  0  0  0
    6.7219    3.3325   22.8577 H   0  0  0  0  0  0  0  0  0  0  0  0
    8.9709    5.7176   24.0467 H   0  0  0  0  0  0  0  0  0  0  0  0
    8.5731    5.3485   26.8225 H   0  0  0  0  0  0  0  0  0  0  0  0
    8.9701    6.9049   26.0515 H   0  0  0  0  0  0  0  0  0  0  0  0
    7.2688    6.4045   26.3317 H   0  0  0  0  0  0  0  0  0  0  0  0
  1  2  1  0
  2  3  1  0
  3  4  2  0
  3  5  1  0
  5  6  1  0
  6  7  1  0
  8  7  1  1
  8  9  1  0
  9 10  2  0
  9 11  1  0
 11 12  1  0
 12 13  2  0
 13 14  1  0
 14 15  2  0
 15 16  1  0
 16 17  2  0
 17 18  1  0
 18 19  2  0
 19 20  1  0
 20 21  2  0
 20 22  1  0
 19 23  1  0
 18 24  1  0
 17 25  1  0
 15 26  1  0
 13 27  1  0
 11 28  1  0
 28 29  1  0
 29 30  1  0
 30 31  1  0
 31 32  2  0
 31 33  1  0
 33 34  1  0
 33 35  1  0
 33 36  1  0
 30 37  1  0
 29 38  1  6
 28 39  1  0
 28 40  1  0
  8 41  1  0
 41 42  2  0
 42 43  1  0
 43 44  1  0
 43 45  2  0
 45 46  1  0
 46 47  2  0
 47 48  1  0
 48 49  2  0
 46 50  1  0
 45 51  1  0
 42 52  1  0
  7 53  1  0
  7 54  1  0
  5 55  1  0
  5 56  1  0
  2 57  1  0
  1 58  1  0
  1 59  1  0
  1 60  1  0
 48  6  1  0
 29  8  1  0
 47 41  1  0
 21 12  1  0
 21 16  1  0
M  END
>  <cnnaffinities>  (73) 
[6.05589, 6.13693, 5.87553, 6.07426, 6.14646, 6.22595]

>  <score>  (73) 
6.05589

>  <index>  (73) 
72

>  <Smiles>  (73) 
C(N(C(=O)C(N1C([C@@]2(C(=O)N(c3c(nc(c4c(c(c(c(c34)[H])[H])[H])[H])[H])[H])C([C@@]2(N(C(=O)C([H])([H])[H])[H])[H])([H])[H])c2c(c(Cl)c(c(c2C1=O)[H])[H])[H])([H])[H])([H])[H])[H])([H])([H])[H]

>  <h>  (73) 
<NA>

>  <Training>  (73) 
True

>  <Success>  (73) 
True

>  <enamine_searched>  (73) 
False

>  <enamine_id>  (73) 
nan

$$$$

     RDKit          3D

 56 61  0  0  0  0  0  0  0  0999 V2000
   10.0632    0.5567   22.4777 C   0  0  0  0  0  0  0  0  0  0  0  0
    8.6276    0.0273   22.4448 C   0  0  1  0  0  0  0  0  0  0  0  0
    7.9454    0.4486   21.1439 C   0  0  0  0  0  0  0  0  0  0  0  0
    6.7670   -0.3912   21.0906 N   0  0  0  0  0  0  0  0  0  0  0  0
    5.8546   -0.2402   20.0170 C   0  0  0  0  0  0  0  0  0  0  0  0
    6.1127   -0.7965   18.7896 C   0  0  0  0  0  0  0  0  0  0  0  0
    5.3462   -0.5990   17.6879 N   0  0  0  0  0  0  0  0  0  0  0  0
    4.2797    0.1534   17.8187 C   0  0  0  0  0  0  0  0  0  0  0  0
    3.8928    0.7876   19.0343 C   0  0  0  0  0  0  0  0  0  0  0  0
    2.7290    1.5935   19.1333 C   0  0  0  0  0  0  0  0  0  0  0  0
    2.3994    2.1904   20.3190 C   0  0  0  0  0  0  0  0  0  0  0  0
    3.2288    2.0357   21.4524 C   0  0  0  0  0  0  0  0  0  0  0  0
    4.3686    1.2732   21.3774 C   0  0  0  0  0  0  0  0  0  0  0  0
    4.7136    0.6092   20.1702 C   0  0  0  0  0  0  0  0  0  0  0  0
    5.0269    1.1786   22.2361 H   0  0  0  0  0  0  0  0  0  0  0  0
    2.9627    2.5275   22.3842 H   0  0  0  0  0  0  0  0  0  0  0  0
    1.5003    2.7969   20.3969 H   0  0  0  0  0  0  0  0  0  0  0  0
    2.1178    1.7365   18.2469 H   0  0  0  0  0  0  0  0  0  0  0  0
    3.6528    0.2886   16.9363 H   0  0  0  0  0  0  0  0  0  0  0  0
    6.9840   -1.4338   18.6445 H   0  0  0  0  0  0  0  0  0  0  0  0
    6.9814   -1.6049   21.7261 C   0  0  0  0  0  0  0  0  0  0  0  0
    6.2762   -2.5864   21.5953 O   0  0  0  0  0  0  0  0  0  0  0  0
    8.2472   -1.4968   22.6054 C   0  0  1  0  0  0  0  0  0  0  0  0
    9.2707   -2.4890   22.1231 C   0  0  0  0  0  0  0  0  0  0  0  0
   10.5328   -2.3885   23.0399 N   0  0  0  0  0  0  0  0  0  0  0  0
   10.5539   -2.3444   23.0372 C   0  0  0  0  0  0  0  0  0  0  0  0
   11.7434   -2.2348   20.9277 C   0  0  0  0  0  0  0  0  0  0  0  0
   12.9821   -2.1944   21.7813 N   0  0  0  0  0  4  0  0  0  0  0  0
   12.6791   -2.7033   23.1197 C   0  0  0  0  0  0  0  0  0  0  0  0
   12.4091   -3.7287   23.1887 H   0  0  0  0  0  0  0  0  0  0  0  0
   13.1457   -2.2409   23.9637 H   0  0  0  0  0  0  0  0  0  0  0  0
   13.3341   -1.2168   21.8157 H   0  0  0  0  0  0  0  0  0  0  0  0
   13.6734   -2.8067   21.3201 H   0  0  0  0  0  0  0  0  0  0  0  0
   11.6493   -3.1777   20.4179 H   0  0  0  0  0  0  0  0  0  0  0  0
   11.7089   -1.3832   20.2632 H   0  0  0  0  0  0  0  0  0  0  0  0
    8.4349   -3.8429   24.4231 H   0  0  0  0  0  0  0  0  0  0  0  0
   10.2572   -2.9737   24.3718 C   0  0  0  0  0  0  0  0  0  0  0  0
   10.9827   -3.4878   25.1813 O   0  0  0  0  0  0  0  0  0  0  0  0
    8.7696   -2.8501   24.7958 C   0  0  0  0  0  0  0  0  0  0  0  0
    8.5572   -2.7961   26.2688 C   0  0  0  0  0  0  0  0  0  0  0  0
    7.5222   -2.1202   26.8390 C   0  0  0  0  0  0  0  0  0  0  0  0
    6.6566   -1.3528   26.0485 C   0  0  0  0  0  0  0  0  0  0  0  0
    5.3323   -0.5313   26.8073 Cl  0  0  0  0  0  0  0  0  0  0  0  0
    6.8801   -1.2204   24.6844 C   0  0  0  0  0  0  0  0  0  0  0  0
    7.9461   -1.8237   24.0526 C   0  0  0  0  0  0  0  0  0  0  0  0
    6.1788   -0.6228   24.1073 H   0  0  0  0  0  0  0  0  0  0  0  0
    7.3508   -2.1705   27.9137 H   0  0  0  0  0  0  0  0  0  0  0  0
    9.2192   -3.3760   26.8937 H   0  0  0  0  0  0  0  0  0  0  0  0
    8.7843   -3.4611   22.0217 H   0  0  0  0  0  0  0  0  0  0  0  0
    9.5845   -2.2705   21.1202 H   0  0  0  0  0  0  0  0  0  0  0  0
    7.6772    1.5098   21.1422 H   0  0  0  0  0  0  0  0  0  0  0  0
    8.6137    0.2644   20.2882 H   0  0  0  0  0  0  0  0  0  0  0  0
    8.0890    0.5293   23.2611 H   0  0  0  0  0  0  0  0  0  0  0  0
   10.6841    0.1447   21.6726 H   0  0  0  0  0  0  0  0  0  0  0  0
   10.5332    0.4857   23.4624 H   0  0  0  0  0  0  0  0  0  0  0  0
   10.0110    1.6351   22.2729 H   0  0  0  0  0  0  0  0  0  0  0  0
  1  2  1  0
  2  3  1  0
  3  4  1  0
  4  5  1  0
  5  6  2  0
  6  7  1  0
  7  8  2  0
  8  9  1  0
  9 10  2  0
 10 11  1  0
 11 12  2  0
 12 13  1  0
 13 14  2  0
 13 15  1  0
 12 16  1  0
 11 17  1  0
 10 18  1  0
  8 19  1  0
  6 20  1  0
  4 21  1  0
 21 22  2  0
 21 23  1  0
 23 24  1  6
 24 25  1  0
 25 26  1  0
 26 27  1  0
 27 28  1  0
 28 29  1  0
 29 30  1  0
 29 31  1  0
 28 32  1  0
 28 33  1  0
 27 34  1  0
 27 35  1  0
 26 36  1  0
 25 37  1  0
 37 38  2  0
 37 39  1  0
 39 40  2  0
 40 41  1  0
 41 42  2  0
 42 43  1  0
 42 44  1  0
 44 45  2  0
 44 46  1  0
 41 47  1  0
 40 48  1  0
 24 49  1  0
 24 50  1  0
  3 51  1  0
  3 52  1  0
  2 53  1  1
  1 54  1  0
  1 55  1  0
  1 56  1  0
 23  2  1  0
 29 26  1  0
 45 39  1  0
 14  5  1  0
 45 23  1  0
 14  9  1  0
M  CHG  1  28   1
M  END
>  <cnnaffinities>  (74) 
[6.27587]

>  <score>  (74) 
6.27587

>  <index>  (74) 
73

>  <Smiles>  (74) 
C([C@]1(C(N(c2c(nc(c3c(c(c(c(c23)[H])[H])[H])[H])[H])[H])C(=O)[C@]21C(N(C1(C([N+](C1([H])[H])([H])[H])([H])[H])[H])C(=O)c1c(c(c(Cl)c(c21)[H])[H])[H])([H])[H])([H])[H])[H])([H])([H])[H]

>  <h>  (74) 
<NA>

>  <Training>  (74) 
True

>  <Success>  (74) 
True

>  <enamine_searched>  (74) 
False

>  <enamine_id>  (74) 
nan

$$$$

     RDKit          3D

 55 60  0  0  0  0  0  0  0  0999 V2000
    7.8935   -1.5606   24.2649 C   0  0  0  0  0  0  0  0  0  0  0  0
    8.0403   -1.1943   22.7884 C   0  0  1  0  0  0  0  0  0  0  0  0
    6.7207   -1.3244   22.0058 C   0  0  0  0  0  0  0  0  0  0  0  0
    6.8484   -0.3271   20.9677 N   0  0  0  0  0  0  0  0  0  0  0  0
    5.8959   -0.1547   19.9334 C   0  0  0  0  0  0  0  0  0  0  0  0
    6.0995   -0.7550   18.7199 C   0  0  0  0  0  0  0  0  0  0  0  0
    5.2756   -0.6187   17.6529 N   0  0  0  0  0  0  0  0  0  0  0  0
    4.2055    0.1238   17.8091 C   0  0  0  0  0  0  0  0  0  0  0  0
    3.8583    0.7778   19.0265 C   0  0  0  0  0  0  0  0  0  0  0  0
    2.6859    1.5679   19.1522 C   0  0  0  0  0  0  0  0  0  0  0  0
    2.3774    2.1738   20.3394 C   0  0  0  0  0  0  0  0  0  0  0  0
    3.2417    2.0443   21.4510 C   0  0  0  0  0  0  0  0  0  0  0  0
    4.3865    1.2933   21.3535 C   0  0  0  0  0  0  0  0  0  0  0  0
    4.7244    0.6368   20.1329 C   0  0  0  0  0  0  0  0  0  0  0  0
    5.0523    1.2125   22.2092 H   0  0  0  0  0  0  0  0  0  0  0  0
    2.9895    2.5403   22.3855 H   0  0  0  0  0  0  0  0  0  0  0  0
    1.4700    2.7660   20.4337 H   0  0  0  0  0  0  0  0  0  0  0  0
    2.0571    1.7000   18.2782 H   0  0  0  0  0  0  0  0  0  0  0  0
    3.5414    0.2320   16.9498 H   0  0  0  0  0  0  0  0  0  0  0  0
    6.9785   -1.3778   18.5622 H   0  0  0  0  0  0  0  0  0  0  0  0
    7.7843    0.6506   21.2357 C   0  0  0  0  0  0  0  0  0  0  0  0
    7.9148    1.6670   20.5832 O   0  0  0  0  0  0  0  0  0  0  0  0
    8.5964    0.2348   22.4838 C   0  0  1  0  0  0  0  0  0  0  0  0
    8.3023    1.2200   23.6470 C   0  0  0  0  0  0  0  0  0  0  0  0
    8.8719    2.5387   23.4487 N   0  0  0  0  0  0  0  0  0  0  0  0
    8.1315    3.7028   23.7898 C   0  0  0  0  0  0  0  0  0  0  0  0
    7.8070    4.3876   22.3837 C   0  0  0  0  0  0  0  0  0  0  0  0
    6.2755    4.3460   22.0899 C   0  0  0  0  0  0  0  0  0  0  0  0
    6.0139    5.0175   20.8845 C   0  0  0  0  0  0  0  0  0  0  0  0
    6.7453    5.7273   20.2215 O   0  0  0  0  0  0  0  0  0  0  0  0
    7.7429    4.3919   22.4561 N   0  0  0  0  0  0  0  0  0  0  0  0
    4.9791    4.8428   20.5307 H   0  0  0  0  0  0  0  0  0  0  0  0
    5.6119    3.6341   22.5593 H   0  0  0  0  0  0  0  0  0  0  0  0
    7.2986    3.5373   24.4852 H   0  0  0  0  0  0  0  0  0  0  0  0
    8.8121    4.4296   24.1713 H   0  0  0  0  0  0  0  0  0  0  0  0
   10.0743    2.7473   22.8240 C   0  0  0  0  0  0  0  0  0  0  0  0
   10.5579    3.8638   22.6833 O   0  0  0  0  0  0  0  0  0  0  0  0
   10.7857    1.5020   22.3958 C   0  0  0  0  0  0  0  0  0  0  0  0
   12.1714    1.5545   22.2185 C   0  0  0  0  0  0  0  0  0  0  0  0
   12.8717    0.4456   21.7869 C   0  0  0  0  0  0  0  0  0  0  0  0
   12.1553   -0.7076   21.4900 C   0  0  0  0  0  0  0  0  0  0  0  0
   12.8173   -1.7783   21.0154 F   0  0  0  0  0  0  0  0  0  0  0  0
   10.7864   -0.7857   21.6366 C   0  0  0  0  0  0  0  0  0  0  0  0
   10.0883    0.2965   22.1894 C   0  0  0  0  0  0  0  0  0  0  0  0
   10.2961   -1.6913   21.3001 H   0  0  0  0  0  0  0  0  0  0  0  0
   13.9458    0.4577   21.6564 H   0  0  0  0  0  0  0  0  0  0  0  0
   12.6890    2.4852   22.4236 H   0  0  0  0  0  0  0  0  0  0  0  0
    8.6673    0.7926   24.5872 H   0  0  0  0  0  0  0  0  0  0  0  0
    7.2178    1.3468   23.7251 H   0  0  0  0  0  0  0  0  0  0  0  0
    5.8471   -1.1314   22.6511 H   0  0  0  0  0  0  0  0  0  0  0  0
    6.5908   -2.3201   21.5650 H   0  0  0  0  0  0  0  0  0  0  0  0
    8.7319   -1.9107   22.3430 H   0  0  0  0  0  0  0  0  0  0  0  0
    7.1522   -0.9231   24.7625 H   0  0  0  0  0  0  0  0  0  0  0  0
    7.5610   -2.5974   24.3794 H   0  0  0  0  0  0  0  0  0  0  0  0
    8.8463   -1.4528   24.7965 H   0  0  0  0  0  0  0  0  0  0  0  0
  1  2  1  0
  2  3  1  0
  3  4  1  0
  4  5  1  0
  5  6  2  0
  6  7  1  0
  7  8  2  0
  8  9  1  0
  9 10  2  0
 10 11  1  0
 11 12  2  0
 12 13  1  0
 13 14  2  0
 13 15  1  0
 12 16  1  0
 11 17  1  0
 10 18  1  0
  8 19  1  0
  6 20  1  0
  4 21  1  0
 21 22  2  0
 21 23  1  0
 23 24  1  1
 24 25  1  0
 25 26  1  0
 26 27  1  0
 27 28  1  0
 28 29  2  0
 29 30  1  0
 30 31  1  0
 29 32  1  0
 28 33  1  0
 26 34  1  0
 26 35  1  0
 25 36  1  0
 36 37  2  0
 36 38  1  0
 38 39  2  0
 39 40  1  0
 40 41  2  0
 41 42  1  0
 41 43  1  0
 43 44  2  0
 43 45  1  0
 40 46  1  0
 39 47  1  0
 24 48  1  0
 24 49  1  0
  3 50  1  0
  3 51  1  0
  2 52  1  6
  1 53  1  0
  1 54  1  0
  1 55  1  0
 23  2  1  0
 31 27  2  0
 44 38  1  0
 14  5  1  0
 44 23  1  0
 14  9  1  0
M  END
>  <cnnaffinities>  (75) 
[6.25357]

>  <score>  (75) 
6.25357

>  <index>  (75) 
74

>  <Smiles>  (75) 
C([C@]1(C(N(c2c(nc(c3c(c(c(c(c23)[H])[H])[H])[H])[H])[H])C(=O)[C@]21C(N(C(c1c(c(on1)[H])[H])([H])[H])C(=O)c1c(c(c(F)c(c21)[H])[H])[H])([H])[H])([H])[H])[H])([H])([H])[H]

>  <h>  (75) 
<NA>

>  <Training>  (75) 
True

>  <Success>  (75) 
True

>  <enamine_searched>  (75) 
False

>  <enamine_id>  (75) 
nan

$$$$

     RDKit          3D

 70 75  0  0  0  0  0  0  0  0999 V2000
    2.5339    8.0734   29.0986 C   0  0  0  0  0  0  0  0  0  0  0  0
    3.7989    7.5367   28.8032 O   0  0  0  0  0  0  0  0  0  0  0  0
    3.9307    6.1892   28.9091 C   0  0  0  0  0  0  0  0  0  0  0  0
    2.9369    5.3118   29.3441 C   0  0  0  0  0  0  0  0  0  0  0  0
    3.2260    3.9497   29.4286 C   0  0  0  0  0  0  0  0  0  0  0  0
    4.4757    3.4634   29.0742 C   0  0  0  0  0  0  0  0  0  0  0  0
    5.4586    4.3488   28.6261 C   0  0  0  0  0  0  0  0  0  0  0  0
    6.8394    3.8890   28.2212 C   0  0  0  0  0  0  0  0  0  0  0  0
    7.0636    3.9418   26.7821 N   0  0  0  0  0  0  0  0  0  0  0  0
    6.4869    2.9741   26.0159 C   0  0  0  0  0  0  0  0  0  0  0  0
    5.8135    2.0687   26.4878 O   0  0  0  0  0  0  0  0  0  0  0  0
    6.7390    3.1122   24.5160 C   0  0  0  0  0  0  0  0  0  0  0  0
    7.8638    2.3140   24.0692 N   0  0  0  0  0  0  0  0  0  0  0  0
    7.7251    0.8695   23.9793 C   0  0  0  0  0  0  0  0  0  0  0  0
    8.3717    0.3105   22.6788 C   0  0  2  0  0  0  0  0  0  0  0  0
    7.5696    0.7578   21.4399 C   0  0  0  0  0  0  0  0  0  0  0  0
    7.5710    1.8520   20.9161 O   0  0  0  0  0  0  0  0  0  0  0  0
    6.8481   -0.3168   20.9737 N   0  0  0  0  0  0  0  0  0  0  0  0
    5.8840   -0.1673   19.9585 C   0  0  0  0  0  0  0  0  0  0  0  0
    6.0717   -0.7980   18.7568 C   0  0  0  0  0  0  0  0  0  0  0  0
    5.2603   -0.6540   17.6842 N   0  0  0  0  0  0  0  0  0  0  0  0
    4.2032    0.1095   17.8346 C   0  0  0  0  0  0  0  0  0  0  0  0
    3.8605    0.7686   19.0485 C   0  0  0  0  0  0  0  0  0  0  0  0
    2.6834    1.5507   19.1639 C   0  0  0  0  0  0  0  0  0  0  0  0
    2.3462    2.1328   20.3529 C   0  0  0  0  0  0  0  0  0  0  0  0
    3.1891    1.9928   21.4778 C   0  0  0  0  0  0  0  0  0  0  0  0
    4.3470    1.2646   21.3866 C   0  0  0  0  0  0  0  0  0  0  0  0
    4.7154    0.6307   20.1613 C   0  0  0  0  0  0  0  0  0  0  0  0
    4.9902    1.1803   22.2592 H   0  0  0  0  0  0  0  0  0  0  0  0
    2.9166    2.4705   22.4144 H   0  0  0  0  0  0  0  0  0  0  0  0
    1.4296    2.7071   20.4427 H   0  0  0  0  0  0  0  0  0  0  0  0
    2.0666    1.6839   18.2823 H   0  0  0  0  0  0  0  0  0  0  0  0
    3.5366    0.2161   16.9779 H   0  0  0  0  0  0  0  0  0  0  0  0
    6.9432   -1.4384   18.6218 H   0  0  0  0  0  0  0  0  0  0  0  0
    7.0171   -1.5283   21.7401 C   0  0  0  0  0  0  0  0  0  0  0  0
    8.2578   -1.2407   22.5958 C   0  0  2  0  0  0  0  0  0  0  0  0
    8.2495   -2.0171   23.9092 C   0  0  0  0  0  0  0  0  0  0  0  0
    7.3582   -1.7738   24.5002 H   0  0  0  0  0  0  0  0  0  0  0  0
    8.2294   -3.0953   23.7109 H   0  0  0  0  0  0  0  0  0  0  0  0
    9.1349   -1.8036   24.5189 H   0  0  0  0  0  0  0  0  0  0  0  0
    9.1166   -1.5847   22.0200 H   0  0  0  0  0  0  0  0  0  0  0  0
    7.1690   -2.3881   21.0792 H   0  0  0  0  0  0  0  0  0  0  0  0
    6.1366   -1.7395   22.3652 H   0  0  0  0  0  0  0  0  0  0  0  0
    9.7866    0.8536   22.6027 C   0  0  0  0  0  0  0  0  0  0  0  0
   10.8077    0.1493   21.9653 C   0  0  0  0  0  0  0  0  0  0  0  0
   12.1123    0.5958   22.0455 C   0  0  0  0  0  0  0  0  0  0  0  0
   13.3408   -0.4403   21.3869 Cl  0  0  0  0  0  0  0  0  0  0  0  0
   12.4257    1.8331   22.6023 C   0  0  0  0  0  0  0  0  0  0  0  0
   11.4027    2.5877   23.1379 C   0  0  0  0  0  0  0  0  0  0  0  0
   10.1001    2.0987   23.1627 C   0  0  0  0  0  0  0  0  0  0  0  0
    9.0346    2.9500   23.7745 C   0  0  0  0  0  0  0  0  0  0  0  0
    9.1958    4.1448   24.0003 O   0  0  0  0  0  0  0  0  0  0  0  0
   11.5809    3.5662   23.5660 H   0  0  0  0  0  0  0  0  0  0  0  0
   13.4444    2.1997   22.5752 H   0  0  0  0  0  0  0  0  0  0  0  0
   10.6039   -0.7241   21.3560 H   0  0  0  0  0  0  0  0  0  0  0  0
    8.2080    0.3874   24.8464 H   0  0  0  0  0  0  0  0  0  0  0  0
    6.6531    0.6413   24.0089 H   0  0  0  0  0  0  0  0  0  0  0  0
    6.9479    4.1557   24.2622 H   0  0  0  0  0  0  0  0  0  0  0  0
    5.8445    2.7848   23.9738 H   0  0  0  0  0  0  0  0  0  0  0  0
    7.8501    4.4535   26.3982 H   0  0  0  0  0  0  0  0  0  0  0  0
    7.5603    4.5424   28.7141 H   0  0  0  0  0  0  0  0  0  0  0  0
    7.0050    2.8685   28.5707 H   0  0  0  0  0  0  0  0  0  0  0  0
    5.1840    5.7029   28.5526 C   0  0  0  0  0  0  0  0  0  0  0  0
    5.9350    6.4219   28.2343 H   0  0  0  0  0  0  0  0  0  0  0  0
    4.6955    2.3992   29.1295 H   0  0  0  0  0  0  0  0  0  0  0  0
    2.4646    3.2599   29.7867 H   0  0  0  0  0  0  0  0  0  0  0  0
    1.9492    5.6664   29.6187 H   0  0  0  0  0  0  0  0  0  0  0  0
    1.7649    7.6525   28.4392 H   0  0  0  0  0  0  0  0  0  0  0  0
    2.6068    9.1468   28.9283 H   0  0  0  0  0  0  0  0  0  0  0  0
    2.2622    7.8887   30.1453 H   0  0  0  0  0  0  0  0  0  0  0  0
  1  2  1  0
  2  3  1  0
  3  4  2  0
  4  5  1  0
  5  6  2  0
  6  7  1  0
  7  8  1  0
  8  9  1  0
  9 10  1  0
 10 11  2  0
 10 12  1  0
 12 13  1  0
 13 14  1  0
 15 14  1  1
 15 16  1  0
 16 17  2  0
 16 18  1  0
 18 19  1  0
 19 20  2  0
 20 21  1  0
 21 22  2  0
 22 23  1  0
 23 24  2  0
 24 25  1  0
 25 26  2  0
 26 27  1  0
 27 28  2  0
 27 29  1  0
 26 30  1  0
 25 31  1  0
 24 32  1  0
 22 33  1  0
 20 34  1  0
 18 35  1  0
 35 36  1  0
 36 37  1  0
 37 38  1  0
 37 39  1  0
 37 40  1  0
 36 41  1  6
 35 42  1  0
 35 43  1  0
 15 44  1  0
 44 45  2  0
 45 46  1  0
 46 47  1  0
 46 48  2  0
 48 49  1  0
 49 50  2  0
 50 51  1  0
 51 52  2  0
 49 53  1  0
 48 54  1  0
 45 55  1  0
 14 56  1  0
 14 57  1  0
 12 58  1  0
 12 59  1  0
  9 60  1  0
  8 61  1  0
  8 62  1  0
  7 63  2  0
 63 64  1  0
  6 65  1  0
  5 66  1  0
  4 67  1  0
  1 68  1  0
  1 69  1  0
  1 70  1  0
 63  3  1  0
 51 13  1  0
 36 15  1  0
 50 44  1  0
 28 19  1  0
 28 23  1  0
M  END
>  <cnnaffinities>  (76) 
[6.28125]

>  <score>  (76) 
6.28125

>  <index>  (76) 
75

>  <Smiles>  (76) 
C(Oc1c(c(c(c(C(N(C(=O)C(N2C([C@@]3(C(=O)N(c4c(nc(c5c(c(c(c(c45)[H])[H])[H])[H])[H])[H])C([C@@]3(C([H])([H])[H])[H])([H])[H])c3c(c(Cl)c(c(c3C2=O)[H])[H])[H])([H])[H])([H])[H])[H])([H])[H])c1[H])[H])[H])[H])([H])([H])[H]

>  <h>  (76) 
<NA>

>  <Training>  (76) 
True

>  <Success>  (76) 
True

>  <enamine_searched>  (76) 
False

>  <enamine_id>  (76) 
nan

$$$$

     RDKit          3D

 61 65  0  0  0  0  0  0  0  0999 V2000
    8.0500   -1.4858   24.2326 C   0  0  0  0  0  0  0  0  0  0  0  0
    8.1110   -1.0611   22.7715 C   0  0  1  0  0  0  0  0  0  0  0  0
    6.8061   -1.2838   21.9991 C   0  0  0  0  0  0  0  0  0  0  0  0
    6.8789   -0.2885   20.9474 N   0  0  0  0  0  0  0  0  0  0  0  0
    5.9003   -0.1486   19.9342 C   0  0  0  0  0  0  0  0  0  0  0  0
    6.0921   -0.7662   18.7281 C   0  0  0  0  0  0  0  0  0  0  0  0
    5.2662   -0.6377   17.6630 N   0  0  0  0  0  0  0  0  0  0  0  0
    4.2072    0.1180   17.8263 C   0  0  0  0  0  0  0  0  0  0  0  0
    3.8707    0.7857   19.0386 C   0  0  0  0  0  0  0  0  0  0  0  0
    2.7066    1.5892   19.1572 C   0  0  0  0  0  0  0  0  0  0  0  0
    2.3848    2.1778   20.3468 C   0  0  0  0  0  0  0  0  0  0  0  0
    3.2235    2.0112   21.4703 C   0  0  0  0  0  0  0  0  0  0  0  0
    4.3706    1.2583   21.3786 C   0  0  0  0  0  0  0  0  0  0  0  0
    4.7296    0.6365   20.1472 C   0  0  0  0  0  0  0  0  0  0  0  0
    5.0122    1.1564   22.2491 H   0  0  0  0  0  0  0  0  0  0  0  0
    2.9691    2.5032   22.4043 H   0  0  0  0  0  0  0  0  0  0  0  0
    1.4741    2.7639   20.4362 H   0  0  0  0  0  0  0  0  0  0  0  0
    2.0895    1.7253   18.2756 H   0  0  0  0  0  0  0  0  0  0  0  0
    3.5377    0.2173   16.9739 H   0  0  0  0  0  0  0  0  0  0  0  0
    6.9750   -1.3846   18.5885 H   0  0  0  0  0  0  0  0  0  0  0  0
    7.7705    0.7307   21.1949 C   0  0  0  0  0  0  0  0  0  0  0  0
    7.8825    1.7184   20.4892 O   0  0  0  0  0  0  0  0  0  0  0  0
    8.5282    0.4125   22.4995 C   0  0  1  0  0  0  0  0  0  0  0  0
    8.0389    1.3693   23.6209 C   0  0  0  0  0  0  0  0  0  0  0  0
    8.4540    2.7410   23.3716 N   0  0  0  0  0  0  0  0  0  0  0  0
    7.5430    3.7933   23.8121 C   0  0  0  0  0  0  0  0  0  0  0  0
    6.2973    3.8727   22.9123 C   0  0  0  0  0  0  0  0  0  0  0  0
    6.1938    5.2116   22.2201 N   0  0  0  0  0  4  0  0  0  0  0  0
    7.3550    5.4141   21.3103 C   0  0  0  0  0  0  0  0  0  0  0  0
    7.3513    4.5841   20.5923 H   0  0  0  0  0  0  0  0  0  0  0  0
    7.2706    6.3665   20.7767 H   0  0  0  0  0  0  0  0  0  0  0  0
    8.2964    5.4026   21.8592 H   0  0  0  0  0  0  0  0  0  0  0  0
    4.9650    5.4165   21.4123 C   0  0  0  0  0  0  0  0  0  0  0  0
    4.8652    4.6183   20.6676 H   0  0  0  0  0  0  0  0  0  0  0  0
    4.0752    5.4462   22.0401 H   0  0  0  0  0  0  0  0  0  0  0  0
    5.0588    6.3597   20.8678 H   0  0  0  0  0  0  0  0  0  0  0  0
    6.1964    5.9210   22.9685 H   0  0  0  0  0  0  0  0  0  0  0  0
    5.3808    3.7002   23.4863 H   0  0  0  0  0  0  0  0  0  0  0  0
    6.3667    3.1104   22.1344 H   0  0  0  0  0  0  0  0  0  0  0  0
    8.0824    4.7392   23.8013 H   0  0  0  0  0  0  0  0  0  0  0  0
    7.2730    3.6238   24.8636 H   0  0  0  0  0  0  0  0  0  0  0  0
    9.7502    3.0302   23.0374 C   0  0  0  0  0  0  0  0  0  0  0  0
   10.2304    4.1550   23.1328 O   0  0  0  0  0  0  0  0  0  0  0  0
   10.5945    1.8647   22.5714 C   0  0  0  0  0  0  0  0  0  0  0  0
   11.9810    2.0311   22.4585 C   0  0  0  0  0  0  0  0  0  0  0  0
   12.7830    0.9844   22.0446 C   0  0  0  0  0  0  0  0  0  0  0  0
   12.1953   -0.2352   21.7215 C   0  0  0  0  0  0  0  0  0  0  0  0
   13.2086   -1.5497   21.1924 Cl  0  0  0  0  0  0  0  0  0  0  0  0
   10.8279   -0.4140   21.8010 C   0  0  0  0  0  0  0  0  0  0  0  0
   10.0179    0.6150   22.3047 C   0  0  0  0  0  0  0  0  0  0  0  0
   10.4231   -1.3553   21.4402 H   0  0  0  0  0  0  0  0  0  0  0  0
   13.8597    1.0834   21.9495 H   0  0  0  0  0  0  0  0  0  0  0  0
   12.4211    2.9959   22.6899 H   0  0  0  0  0  0  0  0  0  0  0  0
    6.9444    1.3380   23.6782 H   0  0  0  0  0  0  0  0  0  0  0  0
    8.4331    1.0374   24.5939 H   0  0  0  0  0  0  0  0  0  0  0  0
    6.7559   -2.2947   21.5803 H   0  0  0  0  0  0  0  0  0  0  0  0
    5.9246   -1.1462   22.6459 H   0  0  0  0  0  0  0  0  0  0  0  0
    8.8512   -1.6938   22.2819 H   0  0  0  0  0  0  0  0  0  0  0  0
    9.0084   -1.2935   24.7295 H   0  0  0  0  0  0  0  0  0  0  0  0
    7.8323   -2.5566   24.2996 H   0  0  0  0  0  0  0  0  0  0  0  0
    7.2636   -0.9442   24.7732 H   0  0  0  0  0  0  0  0  0  0  0  0
  1  2  1  0
  2  3  1  0
  3  4  1  0
  4  5  1  0
  5  6  2  0
  6  7  1  0
  7  8  2  0
  8  9  1  0
  9 10  2  0
 10 11  1  0
 11 12  2  0
 12 13  1  0
 13 14  2  0
 13 15  1  0
 12 16  1  0
 11 17  1  0
 10 18  1  0
  8 19  1  0
  6 20  1  0
  4 21  1  0
 21 22  2  0
 21 23  1  0
 23 24  1  1
 24 25  1  0
 25 26  1  0
 26 27  1  0
 27 28  1  0
 28 29  1  0
 29 30  1  0
 29 31  1  0
 29 32  1  0
 28 33  1  0
 33 34  1  0
 33 35  1  0
 33 36  1  0
 28 37  1  0
 27 38  1  0
 27 39  1  0
 26 40  1  0
 26 41  1  0
 25 42  1  0
 42 43  2  0
 42 44  1  0
 44 45  2  0
 45 46  1  0
 46 47  2  0
 47 48  1  0
 47 49  1  0
 49 50  2  0
 49 51  1  0
 46 52  1  0
 45 53  1  0
 24 54  1  0
 24 55  1  0
  3 56  1  0
  3 57  1  0
  2 58  1  6
  1 59  1  0
  1 60  1  0
  1 61  1  0
 23  2  1  0
 50 44  1  0
 14  5  1  0
 50 23  1  0
 14  9  1  0
M  CHG  1  28   1
M  END
>  <cnnaffinities>  (77) 
[6.05534, 6.23553, 6.22669, 5.83887, 6.03116]

>  <score>  (77) 
6.05534

>  <index>  (77) 
76

>  <Smiles>  (77) 
C([C@]1(C(N(c2c(nc(c3c(c(c(c(c23)[H])[H])[H])[H])[H])[H])C(=O)[C@]21C(N(C(C([N+](C([H])([H])[H])(C([H])([H])[H])[H])([H])[H])([H])[H])C(=O)c1c(c(c(Cl)c(c21)[H])[H])[H])([H])[H])([H])[H])[H])([H])([H])[H]

>  <h>  (77) 
<NA>

>  <Training>  (77) 
True

>  <Success>  (77) 
True

>  <enamine_searched>  (77) 
False

>  <enamine_id>  (77) 
nan

$$$$

     RDKit          3D

 57 60  0  0  0  0  0  0  0  0999 V2000
    8.9243    7.1552   21.8311 C   0  0  0  0  0  0  0  0  0  0  0  0
    8.9156    7.0584   22.2385 C   0  0  0  0  0  0  0  0  0  0  0  0
    7.5312    7.3317   24.0280 C   0  0  0  0  0  0  0  0  0  0  0  0
    6.5049    7.0296   23.7622 H   0  0  0  0  0  0  0  0  0  0  0  0
    7.4608    8.3886   24.3583 H   0  0  0  0  0  0  0  0  0  0  0  0
    7.8449    6.7261   24.8890 H   0  0  0  0  0  0  0  0  0  0  0  0
    9.9913    7.7398   23.3232 C   0  0  0  0  0  0  0  0  0  0  0  0
   10.5289    7.2831   24.3280 N   0  0  0  0  0  0  0  0  0  0  0  0
    8.5096    5.5657   22.5387 C   0  0  0  0  0  0  0  0  0  0  0  0
    7.2885    5.0172   22.1570 C   0  0  0  0  0  0  0  0  0  0  0  0
    7.1170    3.6430   22.1506 C   0  0  0  0  0  0  0  0  0  0  0  0
    8.1360    2.8405   22.6677 C   0  0  0  0  0  0  0  0  0  0  0  0
    8.0007    1.4299   22.5740 N   0  0  0  0  0  0  0  0  0  0  0  0
    7.9094    0.6767   23.8163 C   0  0  0  0  0  0  0  0  0  0  0  0
    6.5599    0.8031   24.5098 C   0  0  0  0  0  0  0  0  0  0  0  0
    6.1113    2.0565   24.9329 C   0  0  0  0  0  0  0  0  0  0  0  0
    4.8870    2.1932   25.5727 C   0  0  0  0  0  0  0  0  0  0  0  0
    4.0802    1.0853   25.8080 C   0  0  0  0  0  0  0  0  0  0  0  0
    4.5299   -0.1595   25.3902 C   0  0  0  0  0  0  0  0  0  0  0  0
    3.5309   -1.5619   25.6493 Cl  0  0  0  0  0  0  0  0  0  0  0  0
    5.7563   -0.3115   24.7506 C   0  0  0  0  0  0  0  0  0  0  0  0
    6.0674   -1.3089   24.4461 H   0  0  0  0  0  0  0  0  0  0  0  0
    3.1242    1.1824   26.3114 H   0  0  0  0  0  0  0  0  0  0  0  0
    4.5543    3.1783   25.8871 H   0  0  0  0  0  0  0  0  0  0  0  0
    6.7256    2.9354   24.7585 H   0  0  0  0  0  0  0  0  0  0  0  0
    8.6885    1.0608   24.4836 H   0  0  0  0  0  0  0  0  0  0  0  0
    8.1519   -0.3739   23.6251 H   0  0  0  0  0  0  0  0  0  0  0  0
    7.6810    0.9445   21.3126 C   0  0  0  0  0  0  0  0  0  0  0  0
    7.9820    1.5588   20.3073 O   0  0  0  0  0  0  0  0  0  0  0  0
    6.9085   -0.3692   21.1895 C   0  0  0  0  0  0  0  0  0  0  0  0
    5.9349   -0.2343   20.0540 C   0  0  0  0  0  0  0  0  0  0  0  0
    6.2042   -0.7605   18.8181 C   0  0  0  0  0  0  0  0  0  0  0  0
    5.4470   -0.5727   17.7073 N   0  0  0  0  0  0  0  0  0  0  0  0
    4.3719    0.1679   17.8444 C   0  0  0  0  0  0  0  0  0  0  0  0
    3.9754    0.7900   19.0616 C   0  0  0  0  0  0  0  0  0  0  0  0
    2.8160    1.6033   19.1517 C   0  0  0  0  0  0  0  0  0  0  0  0
    2.4694    2.1992   20.3324 C   0  0  0  0  0  0  0  0  0  0  0  0
    3.2747    2.0090   21.4787 C   0  0  0  0  0  0  0  0  0  0  0  0
    4.4023    1.2260   21.4190 C   0  0  0  0  0  0  0  0  0  0  0  0
    4.7838    0.5928   20.2037 C   0  0  0  0  0  0  0  0  0  0  0  0
    5.0073    1.1180   22.3158 H   0  0  0  0  0  0  0  0  0  0  0  0
    3.0003    2.4968   22.4107 H   0  0  0  0  0  0  0  0  0  0  0  0
    1.5844    2.8277   20.3981 H   0  0  0  0  0  0  0  0  0  0  0  0
    2.2156    1.7517   18.2576 H   0  0  0  0  0  0  0  0  0  0  0  0
    3.7496    0.3067   16.9594 H   0  0  0  0  0  0  0  0  0  0  0  0
    7.0956   -1.3724   18.6759 H   0  0  0  0  0  0  0  0  0  0  0  0
    6.3958   -0.6078   22.1232 H   0  0  0  0  0  0  0  0  0  0  0  0
    7.6321   -1.1684   20.9827 H   0  0  0  0  0  0  0  0  0  0  0  0
    9.2171    3.4196   23.3170 C   0  0  0  0  0  0  0  0  0  0  0  0
    9.4064    4.8035   23.2806 C   0  0  0  0  0  0  0  0  0  0  0  0
   10.3149    5.1858   23.7679 H   0  0  0  0  0  0  0  0  0  0  0  0
    9.9381    2.7612   23.8116 H   0  0  0  0  0  0  0  0  0  0  0  0
    6.2051    3.1811   21.7697 H   0  0  0  0  0  0  0  0  0  0  0  0
    6.4329    5.6103   21.7808 H   0  0  0  0  0  0  0  0  0  0  0  0
    9.9066    6.8067   21.3427 H   0  0  0  0  0  0  0  0  0  0  0  0
    8.6496    7.0965   20.7311 H   0  0  0  0  0  0  0  0  0  0  0  0
    9.9486    8.8722   23.0055 H   0  0  0  0  0  0  0  0  0  0  0  0
  1  2  1  0
  2  3  1  0
  3  4  1  0
  3  5  1  0
  3  6  1  0
  2  7  1  0
  7  8  3  0
  2  9  1  0
  9 10  2  0
 10 11  1  0
 11 12  2  0
 12 13  1  0
 13 14  1  0
 14 15  1  0
 15 16  2  0
 16 17  1  0
 17 18  2  0
 18 19  1  0
 19 20  1  0
 19 21  2  0
 21 22  1  0
 18 23  1  0
 17 24  1  0
 16 25  1  0
 14 26  1  0
 14 27  1  0
 13 28  1  0
 28 29  2  0
 28 30  1  0
 30 31  1  0
 31 32  2  0
 32 33  1  0
 33 34  2  0
 34 35  1  0
 35 36  2  0
 36 37  1  0
 37 38  2  0
 38 39  1  0
 39 40  2  0
 39 41  1  0
 38 42  1  0
 37 43  1  0
 36 44  1  0
 34 45  1  0
 32 46  1  0
 30 47  1  0
 30 48  1  0
 12 49  1  0
 49 50  2  0
 50 51  1  0
 49 52  1  0
 11 53  1  0
 10 54  1  0
  1 55  1  0
  1 56  1  0
  1 57  1  0
 50  9  1  0
 21 15  1  0
 40 31  1  0
 40 35  1  0
M  END
>  <cnnaffinities>  (78) 
[6.19448]

>  <score>  (78) 
6.19448

>  <index>  (78) 
77

>  <Smiles>  (78) 
C(C(C([H])([H])[H])(C#N)c1c(c(c(N(C(c2c(c(c(c(Cl)c2[H])[H])[H])[H])([H])[H])C(=O)C(c2c(nc(c3c(c(c(c(c23)[H])[H])[H])[H])[H])[H])([H])[H])c(c1[H])[H])[H])[H])([H])([H])[H]

>  <h>  (78) 
<NA>

>  <Training>  (78) 
True

>  <Success>  (78) 
True

>  <enamine_searched>  (78) 
False

>  <enamine_id>  (78) 
nan

$$$$

     RDKit          3D

 40 42  0  0  0  0  0  0  0  0999 V2000
    9.8327   -3.8240   25.9584 C   0  0  0  0  0  0  0  0  0  0  0  0
    9.2975   -3.4849   24.5686 C   0  0  0  0  0  0  0  0  0  0  0  0
    9.3965   -1.9951   24.2691 C   0  0  0  0  0  0  0  0  0  0  0  0
    8.8500   -1.6445   22.8882 C   0  0  0  0  0  0  0  0  0  0  0  0
    7.5005   -2.1539   22.7090 N   0  0  0  0  0  0  0  0  0  0  0  0
    6.4987   -1.4904   22.0282 C   0  0  0  0  0  0  0  0  0  0  0  0
    5.3283   -1.7975   22.1529 O   0  0  0  0  0  0  0  0  0  0  0  0
    6.9026   -0.3594   21.0565 C   0  0  0  0  0  0  0  0  0  0  0  0
    5.8710   -0.1719   19.9717 C   0  0  0  0  0  0  0  0  0  0  0  0
    6.0333   -0.8040   18.7687 C   0  0  0  0  0  0  0  0  0  0  0  0
    5.2181   -0.6775   17.6903 N   0  0  0  0  0  0  0  0  0  0  0  0
    4.1614    0.0857   17.8303 C   0  0  0  0  0  0  0  0  0  0  0  0
    3.8195    0.7434   19.0421 C   0  0  0  0  0  0  0  0  0  0  0  0
    2.6332    1.5078   19.1712 C   0  0  0  0  0  0  0  0  0  0  0  0
    2.3168    2.1247   20.3502 C   0  0  0  0  0  0  0  0  0  0  0  0
    3.1920    2.0139   21.4523 C   0  0  0  0  0  0  0  0  0  0  0  0
    4.3501    1.2808   21.3537 C   0  0  0  0  0  0  0  0  0  0  0  0
    4.6956    0.6175   20.1474 C   0  0  0  0  0  0  0  0  0  0  0  0
    5.0031    1.1922   22.2140 H   0  0  0  0  0  0  0  0  0  0  0  0
    2.9429    2.5202   22.3799 H   0  0  0  0  0  0  0  0  0  0  0  0
    1.4034    2.7098   20.4373 H   0  0  0  0  0  0  0  0  0  0  0  0
    1.9843    1.6112   18.3110 H   0  0  0  0  0  0  0  0  0  0  0  0
    3.5079    0.1981   16.9613 H   0  0  0  0  0  0  0  0  0  0  0  0
    6.8702   -1.4840   18.6181 H   0  0  0  0  0  0  0  0  0  0  0  0
    7.8702   -0.5966   20.5875 H   0  0  0  0  0  0  0  0  0  0  0  0
    7.0396    0.5786   21.6122 H   0  0  0  0  0  0  0  0  0  0  0  0
    7.3082   -3.5664   23.0233 C   0  0  0  0  0  0  0  0  0  0  0  0
    7.8472   -3.9196   24.4005 C   0  0  0  0  0  0  0  0  0  0  0  0
    7.2328   -3.4417   25.1704 H   0  0  0  0  0  0  0  0  0  0  0  0
    7.7596   -4.9985   24.5684 H   0  0  0  0  0  0  0  0  0  0  0  0
    7.8160   -4.1917   22.2716 H   0  0  0  0  0  0  0  0  0  0  0  0
    6.2430   -3.7793   22.9531 H   0  0  0  0  0  0  0  0  0  0  0  0
    8.8361   -0.5617   22.7674 H   0  0  0  0  0  0  0  0  0  0  0  0
    9.5304   -2.0506   22.1239 H   0  0  0  0  0  0  0  0  0  0  0  0
    8.8501   -1.4363   25.0357 H   0  0  0  0  0  0  0  0  0  0  0  0
   10.4377   -1.6682   24.3400 H   0  0  0  0  0  0  0  0  0  0  0  0
    9.9042   -4.0220   23.8265 H   0  0  0  0  0  0  0  0  0  0  0  0
    9.7707   -4.8992   26.1641 H   0  0  0  0  0  0  0  0  0  0  0  0
   10.8791   -3.5182   26.0729 H   0  0  0  0  0  0  0  0  0  0  0  0
    9.2539   -3.3083   26.7340 H   0  0  0  0  0  0  0  0  0  0  0  0
  1  2  1  0
  2  3  1  0
  3  4  1  0
  4  5  1  0
  5  6  1  0
  6  7  2  0
  6  8  1  0
  8  9  1  0
  9 10  2  0
 10 11  1  0
 11 12  2  0
 12 13  1  0
 13 14  2  0
 14 15  1  0
 15 16  2  0
 16 17  1  0
 17 18  2  0
 17 19  1  0
 16 20  1  0
 15 21  1  0
 14 22  1  0
 12 23  1  0
 10 24  1  0
  8 25  1  0
  8 26  1  0
  5 27  1  0
 27 28  1  0
 28 29  1  0
 28 30  1  0
 27 31  1  0
 27 32  1  0
  4 33  1  0
  4 34  1  0
  3 35  1  0
  3 36  1  0
  2 37  1  0
  1 38  1  0
  1 39  1  0
  1 40  1  0
 28  2  1  0
 18  9  1  0
 18 13  1  0
M  END
>  <cnnaffinities>  (79) 
[4.91101, 4.81519]

>  <score>  (79) 
4.91101

>  <index>  (79) 
79

>  <Smiles>  (79) 
C(C1(C(C(N(C(=O)C(c2c(nc(c3c(c(c(c(c23)[H])[H])[H])[H])[H])[H])([H])[H])C(C1([H])[H])([H])[H])([H])[H])([H])[H])[H])([H])([H])[H]

>  <h>  (79) 
<NA>

>  <Training>  (79) 
True

>  <Success>  (79) 
True

>  <enamine_searched>  (79) 
False

>  <enamine_id>  (79) 
nan

$$$$

     RDKit          3D

 59 64  0  0  0  0  0  0  0  0999 V2000
   10.2383   -0.7232   22.3017 C   0  0  0  0  0  0  0  0  0  0  0  0
    8.7739   -0.3068   22.2867 C   0  0  1  0  0  0  0  0  0  0  0  0
    8.2274   -0.1892   20.8571 C   0  0  0  0  0  0  0  0  0  0  0  0
    6.8031   -0.3843   21.0326 N   0  0  0  0  0  0  0  0  0  0  0  0
    5.8815   -0.1771   19.9852 C   0  0  0  0  0  0  0  0  0  0  0  0
    6.1237   -0.7277   18.7518 C   0  0  0  0  0  0  0  0  0  0  0  0
    5.3178   -0.5909   17.6714 N   0  0  0  0  0  0  0  0  0  0  0  0
    4.2332    0.1306   17.8242 C   0  0  0  0  0  0  0  0  0  0  0  0
    3.8777    0.7847   19.0373 C   0  0  0  0  0  0  0  0  0  0  0  0
    2.6983    1.5683   19.1389 C   0  0  0  0  0  0  0  0  0  0  0  0
    2.3812    2.1992   20.3100 C   0  0  0  0  0  0  0  0  0  0  0  0
    3.2418    2.0972   21.4265 C   0  0  0  0  0  0  0  0  0  0  0  0
    4.3935    1.3549   21.3525 C   0  0  0  0  0  0  0  0  0  0  0  0
    4.7256    0.6509   20.1587 C   0  0  0  0  0  0  0  0  0  0  0  0
    5.0557    1.2930   22.2103 H   0  0  0  0  0  0  0  0  0  0  0  0
    2.9883    2.6144   22.3482 H   0  0  0  0  0  0  0  0  0  0  0  0
    1.4723    2.7907   20.3882 H   0  0  0  0  0  0  0  0  0  0  0  0
    2.0755    1.6823   18.2573 H   0  0  0  0  0  0  0  0  0  0  0  0
    3.5684    0.2249   16.9652 H   0  0  0  0  0  0  0  0  0  0  0  0
    7.0089   -1.3421   18.5992 H   0  0  0  0  0  0  0  0  0  0  0  0
    6.4902   -1.0421   22.2027 C   0  0  0  0  0  0  0  0  0  0  0  0
    5.3720   -1.4083   22.4947 O   0  0  0  0  0  0  0  0  0  0  0  0
    7.7766   -1.2375   23.0423 C   0  0  1  0  0  0  0  0  0  0  0  0
    8.2610   -2.7163   22.9664 C   0  0  0  0  0  0  0  0  0  0  0  0
    7.4570   -3.6276   23.7646 N   0  0  0  0  0  0  0  0  0  0  0  0
    7.0601   -4.9488   23.2560 C   0  0  0  0  0  0  0  0  0  0  0  0
    5.5914   -5.0452   22.9635 C   0  0  0  0  0  0  0  0  0  0  0  0
    4.5659   -5.5070   23.7660 C   0  0  0  0  0  0  0  0  0  0  0  0
    3.4021   -5.1478   23.0768 C   0  0  0  0  0  0  0  0  0  0  0  0
    3.6834   -4.5602   21.9230 N   0  0  0  0  0  0  0  0  0  0  0  0
    5.0158   -4.5204   21.8510 N   0  0  0  0  0  0  0  0  0  0  0  0
    5.6439   -4.0241   20.6420 C   0  0  0  0  0  0  0  0  0  0  0  0
    6.2452   -3.1342   20.8447 H   0  0  0  0  0  0  0  0  0  0  0  0
    6.2499   -4.8041   20.1863 H   0  0  0  0  0  0  0  0  0  0  0  0
    4.8714   -3.7724   19.9215 H   0  0  0  0  0  0  0  0  0  0  0  0
    2.3753   -5.2665   23.3817 H   0  0  0  0  0  0  0  0  0  0  0  0
    4.6476   -6.0191   24.7210 H   0  0  0  0  0  0  0  0  0  0  0  0
    7.2855   -5.6796   24.0398 H   0  0  0  0  0  0  0  0  0  0  0  0
    7.6496   -5.1804   22.3586 H   0  0  0  0  0  0  0  0  0  0  0  0
    7.0524   -3.3126   25.0329 C   0  0  0  0  0  0  0  0  0  0  0  0
    6.5793   -4.1565   25.7898 O   0  0  0  0  0  0  0  0  0  0  0  0
    7.1672   -1.8758   25.4327 C   0  0  0  0  0  0  0  0  0  0  0  0
    6.8426   -1.5549   26.7524 C   0  0  0  0  0  0  0  0  0  0  0  0
    6.8252   -0.2424   27.1739 C   0  0  0  0  0  0  0  0  0  0  0  0
    7.1181    0.7424   26.2385 C   0  0  0  0  0  0  0  0  0  0  0  0
    7.0788    2.0293   26.6264 F   0  0  0  0  0  0  0  0  0  0  0  0
    7.4372    0.4513   24.9262 C   0  0  0  0  0  0  0  0  0  0  0  0
    7.5023   -0.8830   24.4993 C   0  0  0  0  0  0  0  0  0  0  0  0
    7.6088    1.2816   24.2520 H   0  0  0  0  0  0  0  0  0  0  0  0
    6.5778    0.0250   28.1945 H   0  0  0  0  0  0  0  0  0  0  0  0
    6.5857   -2.3623   27.4308 H   0  0  0  0  0  0  0  0  0  0  0  0
    9.3105   -2.7602   23.2952 H   0  0  0  0  0  0  0  0  0  0  0  0
    8.2226   -3.0553   21.9251 H   0  0  0  0  0  0  0  0  0  0  0  0
    8.4257    0.7924   20.4176 H   0  0  0  0  0  0  0  0  0  0  0  0
    8.6716   -0.9484   20.1963 H   0  0  0  0  0  0  0  0  0  0  0  0
    8.6917    0.6842   22.7365 H   0  0  0  0  0  0  0  0  0  0  0  0
   10.8632    0.0418   21.8303 H   0  0  0  0  0  0  0  0  0  0  0  0
   10.3853   -1.6542   21.7403 H   0  0  0  0  0  0  0  0  0  0  0  0
   10.5983   -0.8855   23.3234 H   0  0  0  0  0  0  0  0  0  0  0  0
  1  2  1  0
  2  3  1  0
  3  4  1  0
  4  5  1  0
  5  6  2  0
  6  7  1  0
  7  8  2  0
  8  9  1  0
  9 10  2  0
 10 11  1  0
 11 12  2  0
 12 13  1  0
 13 14  2  0
 13 15  1  0
 12 16  1  0
 11 17  1  0
 10 18  1  0
  8 19  1  0
  6 20  1  0
  4 21  1  0
 21 22  2  0
 21 23  1  0
 23 24  1  1
 24 25  1  0
 25 26  1  0
 26 27  1  0
 27 28  2  0
 28 29  1  0
 29 30  2  0
 30 31  1  0
 31 32  1  0
 32 33  1  0
 32 34  1  0
 32 35  1  0
 29 36  1  0
 28 37  1  0
 26 38  1  0
 26 39  1  0
 25 40  1  0
 40 41  2  0
 40 42  1  0
 42 43  2  0
 43 44  1  0
 44 45  2  0
 45 46  1  0
 45 47  1  0
 47 48  2  0
 47 49  1  0
 44 50  1  0
 43 51  1  0
 24 52  1  0
 24 53  1  0
  3 54  1  0
  3 55  1  0
  2 56  1  1
  1 57  1  0
  1 58  1  0
  1 59  1  0
 23  2  1  0
 31 27  1  0
 48 42  1  0
 14  5  1  0
 48 23  1  0
 14  9  1  0
M  END
>  <cnnaffinities>  (80) 
[6.034, 6.10316, 6.0899, 6.00734, 6.07046, 6.06325, 6.07833, 6.15862, 6.17164]

>  <score>  (80) 
6.034

>  <index>  (80) 
80

>  <Smiles>  (80) 
C([C@]1(C(N(c2c(nc(c3c(c(c(c(c23)[H])[H])[H])[H])[H])[H])C(=O)[C@]21C(N(C(c1c(c(nn1C([H])([H])[H])[H])[H])([H])[H])C(=O)c1c(c(c(F)c(c21)[H])[H])[H])([H])[H])([H])[H])[H])([H])([H])[H]

>  <h>  (80) 
<NA>

>  <Training>  (80) 
True

>  <Success>  (80) 
True

>  <enamine_searched>  (80) 
False

>  <enamine_id>  (80) 
nan

$$$$

     RDKit          3D

 58 63  0  0  0  0  0  0  0  0999 V2000
    4.8150    4.7883   20.5126 C   0  0  0  0  0  0  0  0  0  0  0  0
    5.9626    4.7195   21.4574 C   0  0  0  0  0  0  0  0  0  0  0  0
    6.1736    4.0177   22.5294 N   0  0  0  0  0  0  0  0  0  0  0  0
    7.4506    4.4019   22.9439 C   0  0  0  0  0  0  0  0  0  0  0  0
    8.1340    3.7568   24.1054 C   0  0  0  0  0  0  0  0  0  0  0  0
    8.8566    2.5458   23.7100 N   0  0  0  0  0  0  0  0  0  0  0  0
    8.2280    1.2394   23.8570 C   0  0  0  0  0  0  0  0  0  0  0  0
    8.4709    0.2881   22.6439 C   0  0  2  0  0  0  0  0  0  0  0  0
    7.6734    0.7384   21.3964 C   0  0  0  0  0  0  0  0  0  0  0  0
    7.8028    1.7685   20.7756 O   0  0  0  0  0  0  0  0  0  0  0  0
    6.8124   -0.2786   21.0435 N   0  0  0  0  0  0  0  0  0  0  0  0
    5.8936   -0.1253   19.9814 C   0  0  0  0  0  0  0  0  0  0  0  0
    6.0887   -0.7631   18.7836 C   0  0  0  0  0  0  0  0  0  0  0  0
    5.2881   -0.6236   17.7024 N   0  0  0  0  0  0  0  0  0  0  0  0
    4.2312    0.1455   17.8346 C   0  0  0  0  0  0  0  0  0  0  0  0
    3.8800    0.8212   19.0375 C   0  0  0  0  0  0  0  0  0  0  0  0
    2.6978    1.6002   19.1498 C   0  0  0  0  0  0  0  0  0  0  0  0
    2.3507    2.1696   20.3451 C   0  0  0  0  0  0  0  0  0  0  0  0
    3.1927    2.0275   21.4701 C   0  0  0  0  0  0  0  0  0  0  0  0
    4.3617    1.3140   21.3771 C   0  0  0  0  0  0  0  0  0  0  0  0
    4.7300    0.6828   20.1563 C   0  0  0  0  0  0  0  0  0  0  0  0
    5.0167    1.2312   22.2382 H   0  0  0  0  0  0  0  0  0  0  0  0
    2.9276    2.5137   22.4065 H   0  0  0  0  0  0  0  0  0  0  0  0
    1.4301    2.7411   20.4328 H   0  0  0  0  0  0  0  0  0  0  0  0
    2.0856    1.7381   18.2651 H   0  0  0  0  0  0  0  0  0  0  0  0
    3.5797    0.2492   16.9676 H   0  0  0  0  0  0  0  0  0  0  0  0
    6.9568   -1.4037   18.6415 H   0  0  0  0  0  0  0  0  0  0  0  0
    7.1434   -1.5482   21.6483 C   0  0  0  0  0  0  0  0  0  0  0  0
    7.9244   -1.1577   22.9225 C   0  0  2  0  0  0  0  0  0  0  0  0
    7.0611   -1.3304   24.1834 C   0  0  0  0  0  0  0  0  0  0  0  0
    6.7511   -2.3762   24.2799 H   0  0  0  0  0  0  0  0  0  0  0  0
    6.1533   -0.7162   24.1700 H   0  0  0  0  0  0  0  0  0  0  0  0
    7.6259   -1.0839   25.0868 H   0  0  0  0  0  0  0  0  0  0  0  0
    8.7732   -1.8338   23.0631 H   0  0  0  0  0  0  0  0  0  0  0  0
    6.2262   -2.1049   21.8627 H   0  0  0  0  0  0  0  0  0  0  0  0
    7.7607   -2.1669   20.9814 H   0  0  0  0  0  0  0  0  0  0  0  0
    9.9559    0.3337   22.2926 C   0  0  0  0  0  0  0  0  0  0  0  0
   10.6082   -0.7700   21.7281 C   0  0  0  0  0  0  0  0  0  0  0  0
   11.9740   -0.7332   21.5292 C   0  0  0  0  0  0  0  0  0  0  0  0
   12.5917   -1.8401   21.0717 F   0  0  0  0  0  0  0  0  0  0  0  0
   12.7287    0.3991   21.7998 C   0  0  0  0  0  0  0  0  0  0  0  0
   12.0759    1.5248   22.2592 C   0  0  0  0  0  0  0  0  0  0  0  0
   10.7037    1.4980   22.5265 C   0  0  0  0  0  0  0  0  0  0  0  0
   10.0733    2.7270   23.1093 C   0  0  0  0  0  0  0  0  0  0  0  0
   10.6298    3.8192   23.0752 O   0  0  0  0  0  0  0  0  0  0  0  0
   12.6358    2.4343   22.4635 H   0  0  0  0  0  0  0  0  0  0  0  0
   13.8004    0.3945   21.6127 H   0  0  0  0  0  0  0  0  0  0  0  0
   10.0835   -1.6726   21.4358 H   0  0  0  0  0  0  0  0  0  0  0  0
    8.5973    0.7397   24.7686 H   0  0  0  0  0  0  0  0  0  0  0  0
    7.1530    1.4158   23.9630 H   0  0  0  0  0  0  0  0  0  0  0  0
    7.3974    3.5005   24.8725 H   0  0  0  0  0  0  0  0  0  0  0  0
    8.8530    4.4526   24.5460 H   0  0  0  0  0  0  0  0  0  0  0  0
    7.9327    5.3305   22.0925 C   0  0  0  0  0  0  0  0  0  0  0  0
    6.9921    5.5478   21.1362 O   0  0  0  0  0  0  0  0  0  0  0  0
    8.8530    5.8897   22.0122 H   0  0  0  0  0  0  0  0  0  0  0  0
    4.9824    5.6846   19.9256 H   0  0  0  0  0  0  0  0  0  0  0  0
    4.7534    3.9004   19.8758 H   0  0  0  0  0  0  0  0  0  0  0  0
    3.8554    4.8680   21.0212 H   0  0  0  0  0  0  0  0  0  0  0  0
  1  2  1  0
  2  3  2  0
  3  4  1  0
  4  5  1  0
  5  6  1  0
  6  7  1  0
  8  7  1  1
  8  9  1  0
  9 10  2  0
  9 11  1  0
 11 12  1  0
 12 13  2  0
 13 14  1  0
 14 15  2  0
 15 16  1  0
 16 17  2  0
 17 18  1  0
 18 19  2  0
 19 20  1  0
 20 21  2  0
 20 22  1  0
 19 23  1  0
 18 24  1  0
 17 25  1  0
 15 26  1  0
 13 27  1  0
 11 28  1  0
 28 29  1  0
 29 30  1  0
 30 31  1  0
 30 32  1  0
 30 33  1  0
 29 34  1  1
 28 35  1  0
 28 36  1  0
  8 37  1  0
 37 38  2  0
 38 39  1  0
 39 40  1  0
 39 41  2  0
 41 42  1  0
 42 43  2  0
 43 44  1  0
 44 45  2  0
 42 46  1  0
 41 47  1  0
 38 48  1  0
  7 49  1  0
  7 50  1  0
  5 51  1  0
  5 52  1  0
  4 53  2  0
 53 54  1  0
 53 55  1  0
  1 56  1  0
  1 57  1  0
  1 58  1  0
 54  2  1  0
 44  6  1  0
 29  8  1  0
 43 37  1  0
 21 12  1  0
 21 16  1  0
M  END
>  <cnnaffinities>  (81) 
[6.18525, 6.07397]

>  <score>  (81) 
6.18525

>  <index>  (81) 
81

>  <Smiles>  (81) 
C(c1nc(C(N2C([C@@]3(C(=O)N(c4c(nc(c5c(c(c(c(c45)[H])[H])[H])[H])[H])[H])C([C@@]3(C([H])([H])[H])[H])([H])[H])c3c(c(F)c(c(c3C2=O)[H])[H])[H])([H])[H])([H])[H])c(o1)[H])([H])([H])[H]

>  <h>  (81) 
<NA>

>  <Training>  (81) 
True

>  <Success>  (81) 
True

>  <enamine_searched>  (81) 
False

>  <enamine_id>  (81) 
nan

$$$$

     RDKit          3D

 55 60  0  0  0  0  0  0  0  0999 V2000
   10.0447    0.7081   22.4408 C   0  0  0  0  0  0  0  0  0  0  0  0
    8.6163    0.1872   22.4206 C   0  0  1  0  0  0  0  0  0  0  0  0
    7.7948    0.7200   21.2369 C   0  0  0  0  0  0  0  0  0  0  0  0
    6.7908   -0.3126   21.0414 N   0  0  0  0  0  0  0  0  0  0  0  0
    5.8572   -0.2005   19.9870 C   0  0  0  0  0  0  0  0  0  0  0  0
    6.0716   -0.8187   18.7830 C   0  0  0  0  0  0  0  0  0  0  0  0
    5.2841   -0.6446   17.6927 N   0  0  0  0  0  0  0  0  0  0  0  0
    4.2281    0.1220   17.8278 C   0  0  0  0  0  0  0  0  0  0  0  0
    3.8613    0.7714   19.0430 C   0  0  0  0  0  0  0  0  0  0  0  0
    2.6953    1.5673   19.1649 C   0  0  0  0  0  0  0  0  0  0  0  0
    2.3731    2.1466   20.3604 C   0  0  0  0  0  0  0  0  0  0  0  0
    3.2238    2.0066   21.4782 C   0  0  0  0  0  0  0  0  0  0  0  0
    4.3778    1.2704   21.3804 C   0  0  0  0  0  0  0  0  0  0  0  0
    4.7081    0.6241   20.1604 C   0  0  0  0  0  0  0  0  0  0  0  0
    5.0353    1.1655   22.2376 H   0  0  0  0  0  0  0  0  0  0  0  0
    2.9689    2.4962   22.4126 H   0  0  0  0  0  0  0  0  0  0  0  0
    1.4632    2.7312   20.4576 H   0  0  0  0  0  0  0  0  0  0  0  0
    2.0762    1.7131   18.2875 H   0  0  0  0  0  0  0  0  0  0  0  0
    3.5811    0.2387   16.9571 H   0  0  0  0  0  0  0  0  0  0  0  0
    6.9309   -1.4733   18.6513 H   0  0  0  0  0  0  0  0  0  0  0  0
    7.1797   -1.5446   21.5302 C   0  0  0  0  0  0  0  0  0  0  0  0
    6.5970   -2.5878   21.3090 O   0  0  0  0  0  0  0  0  0  0  0  0
    8.4653   -1.3785   22.3554 C   0  0  1  0  0  0  0  0  0  0  0  0
    9.5791   -2.1258   21.5759 C   0  0  0  0  0  0  0  0  0  0  0  0
   10.7772   -2.3513   22.3688 N   0  0  0  0  0  0  0  0  0  0  0  0
   12.0967   -2.3214   21.7735 C   0  0  0  0  0  0  0  0  0  0  0  0
   12.8103   -1.0416   22.0268 C   0  0  0  0  0  0  0  0  0  0  0  0
   13.2260   -0.1287   21.2192 N   0  0  0  0  0  0  0  0  0  0  0  0
   13.8867    0.7726   22.0433 C   0  0  0  0  0  0  0  0  0  0  0  0
   13.8124    0.3413   23.3172 C   0  0  0  0  0  0  0  0  0  0  0  0
   13.1045   -0.8189   23.3288 O   0  0  0  0  0  0  0  0  0  0  0  0
   14.2538    0.6400   24.2415 H   0  0  0  0  0  0  0  0  0  0  0  0
   14.3934    1.6411   21.6562 H   0  0  0  0  0  0  0  0  0  0  0  0
   12.0488   -2.5621   20.7130 H   0  0  0  0  0  0  0  0  0  0  0  0
   12.6886   -3.0599   22.3180 H   0  0  0  0  0  0  0  0  0  0  0  0
   10.7228   -2.8116   23.6560 C   0  0  0  0  0  0  0  0  0  0  0  0
   11.6915   -3.3015   24.2180 O   0  0  0  0  0  0  0  0  0  0  0  0
    9.4197   -2.6502   24.3417 C   0  0  0  0  0  0  0  0  0  0  0  0
    9.3398   -3.1311   25.6433 C   0  0  0  0  0  0  0  0  0  0  0  0
    8.1734   -3.0136   26.3667 C   0  0  0  0  0  0  0  0  0  0  0  0
    7.0930   -2.4020   25.7438 C   0  0  0  0  0  0  0  0  0  0  0  0
    5.9513   -2.2789   26.4367 F   0  0  0  0  0  0  0  0  0  0  0  0
    7.1524   -1.9015   24.4556 C   0  0  0  0  0  0  0  0  0  0  0  0
    8.3418   -2.0096   23.7292 C   0  0  0  0  0  0  0  0  0  0  0  0
    6.2782   -1.4390   24.0138 H   0  0  0  0  0  0  0  0  0  0  0  0
    8.0918   -3.3871   27.3808 H   0  0  0  0  0  0  0  0  0  0  0  0
   10.2295   -3.5910   26.0558 H   0  0  0  0  0  0  0  0  0  0  0  0
    9.8496   -1.5556   20.6821 H   0  0  0  0  0  0  0  0  0  0  0  0
    9.1560   -3.0840   21.2434 H   0  0  0  0  0  0  0  0  0  0  0  0
    7.3198    1.6853   21.4487 H   0  0  0  0  0  0  0  0  0  0  0  0
    8.4083    0.8539   20.3286 H   0  0  0  0  0  0  0  0  0  0  0  0
    8.1035    0.5055   23.3429 H   0  0  0  0  0  0  0  0  0  0  0  0
   10.5652    0.4382   21.5164 H   0  0  0  0  0  0  0  0  0  0  0  0
   10.0668    1.7998   22.5449 H   0  0  0  0  0  0  0  0  0  0  0  0
   10.5917    0.2632   23.2761 H   0  0  0  0  0  0  0  0  0  0  0  0
  1  2  1  0
  2  3  1  0
  3  4  1  0
  4  5  1  0
  5  6  2  0
  6  7  1  0
  7  8  2  0
  8  9  1  0
  9 10  2  0
 10 11  1  0
 11 12  2  0
 12 13  1  0
 13 14  2  0
 13 15  1  0
 12 16  1  0
 11 17  1  0
 10 18  1  0
  8 19  1  0
  6 20  1  0
  4 21  1  0
 21 22  2  0
 21 23  1  0
 23 24  1  6
 24 25  1  0
 25 26  1  0
 26 27  1  0
 27 28  2  0
 28 29  1  0
 29 30  2  0
 30 31  1  0
 30 32  1  0
 29 33  1  0
 26 34  1  0
 26 35  1  0
 25 36  1  0
 36 37  2  0
 36 38  1  0
 38 39  2  0
 39 40  1  0
 40 41  2  0
 41 42  1  0
 41 43  1  0
 43 44  2  0
 43 45  1  0
 40 46  1  0
 39 47  1  0
 24 48  1  0
 24 49  1  0
  3 50  1  0
  3 51  1  0
  2 52  1  1
  1 53  1  0
  1 54  1  0
  1 55  1  0
 23  2  1  0
 31 27  1  0
 44 38  1  0
 14  5  1  0
 44 23  1  0
 14  9  1  0
M  END
>  <cnnaffinities>  (82) 
[6.52081, 6.59342]

>  <score>  (82) 
6.52081

>  <index>  (82) 
82

>  <Smiles>  (82) 
C([C@]1(C(N(c2c(nc(c3c(c(c(c(c23)[H])[H])[H])[H])[H])[H])C(=O)[C@]21C(N(C(c1nc(c(o1)[H])[H])([H])[H])C(=O)c1c(c(c(F)c(c21)[H])[H])[H])([H])[H])([H])[H])[H])([H])([H])[H]

>  <h>  (82) 
<NA>

>  <Training>  (82) 
True

>  <Success>  (82) 
True

>  <enamine_searched>  (82) 
False

>  <enamine_id>  (82) 
nan

$$$$

     RDKit          3D

 72 77  0  0  0  0  0  0  0  0999 V2000
    4.4909    4.5840   23.8324 C   0  0  0  0  0  0  0  0  0  0  0  0
    5.5824    5.6198   24.0613 C   0  0  2  0  0  0  0  0  0  0  0  0
    4.9552    7.0104   24.1500 C   0  0  0  0  0  0  0  0  0  0  0  0
    5.9073    8.0490   24.1842 O   0  0  0  0  0  0  0  0  0  0  0  0
    6.6527    8.0558   22.9863 C   0  0  0  0  0  0  0  0  0  0  0  0
    7.5113    6.8043   22.8555 C   0  0  1  0  0  0  0  0  0  0  0  0
    8.6046    6.7866   23.9174 C   0  0  0  0  0  0  0  0  0  0  0  0
    9.3530    6.0099   23.7305 H   0  0  0  0  0  0  0  0  0  0  0  0
    8.1646    6.6452   24.9101 H   0  0  0  0  0  0  0  0  0  0  0  0
    9.1310    7.7465   23.9258 H   0  0  0  0  0  0  0  0  0  0  0  0
    6.5883    5.5938   22.9186 N   0  0  0  0  0  4  0  0  0  0  0  0
    7.3112    4.2977   22.6850 C   0  0  0  0  0  0  0  0  0  0  0  0
    7.8127    3.5880   23.9479 C   0  0  0  0  0  0  0  0  0  0  0  0
    8.6459    2.4483   23.6231 N   0  0  0  0  0  0  0  0  0  0  0  0
    8.1141    1.1059   23.7398 C   0  0  0  0  0  0  0  0  0  0  0  0
    8.5197    0.2026   22.5560 C   0  0  2  0  0  0  0  0  0  0  0  0
    7.7681    0.6230   21.2787 C   0  0  0  0  0  0  0  0  0  0  0  0
    7.9378    1.6253   20.6203 O   0  0  0  0  0  0  0  0  0  0  0  0
    6.8387   -0.3446   20.9875 N   0  0  0  0  0  0  0  0  0  0  0  0
    5.8866   -0.1646   19.9595 C   0  0  0  0  0  0  0  0  0  0  0  0
    6.0779   -0.7919   18.7581 C   0  0  0  0  0  0  0  0  0  0  0  0
    5.2621   -0.6498   17.6864 N   0  0  0  0  0  0  0  0  0  0  0  0
    4.1994    0.1046   17.8384 C   0  0  0  0  0  0  0  0  0  0  0  0
    3.8567    0.7678   19.0526 C   0  0  0  0  0  0  0  0  0  0  0  0
    2.6704    1.5378   19.1783 C   0  0  0  0  0  0  0  0  0  0  0  0
    2.3397    2.1218   20.3698 C   0  0  0  0  0  0  0  0  0  0  0  0
    3.2016    2.0051   21.4839 C   0  0  0  0  0  0  0  0  0  0  0  0
    4.3699    1.2889   21.3851 C   0  0  0  0  0  0  0  0  0  0  0  0
    4.7217    0.6381   20.1630 C   0  0  0  0  0  0  0  0  0  0  0  0
    5.0279    1.2151   22.2487 H   0  0  0  0  0  0  0  0  0  0  0  0
    2.9475    2.5057   22.4165 H   0  0  0  0  0  0  0  0  0  0  0  0
    1.4145    2.6854   20.4635 H   0  0  0  0  0  0  0  0  0  0  0  0
    2.0448    1.6707   18.3019 H   0  0  0  0  0  0  0  0  0  0  0  0
    3.5273    0.2037   16.9832 H   0  0  0  0  0  0  0  0  0  0  0  0
    6.9371   -1.4480   18.6168 H   0  0  0  0  0  0  0  0  0  0  0  0
    6.7773   -1.4342   21.9280 C   0  0  0  0  0  0  0  0  0  0  0  0
    8.0599   -1.2751   22.7556 C   0  0  2  0  0  0  0  0  0  0  0  0
    7.8851   -1.7691   24.1900 C   0  0  0  0  0  0  0  0  0  0  0  0
    7.0863   -1.2147   24.6954 H   0  0  0  0  0  0  0  0  0  0  0  0
    7.6043   -2.8285   24.2015 H   0  0  0  0  0  0  0  0  0  0  0  0
    8.7987   -1.6661   24.7867 H   0  0  0  0  0  0  0  0  0  0  0  0
    8.8272   -1.8940   22.2941 H   0  0  0  0  0  0  0  0  0  0  0  0
    6.7301   -2.3876   21.3909 H   0  0  0  0  0  0  0  0  0  0  0  0
    5.8856   -1.3636   22.5687 H   0  0  0  0  0  0  0  0  0  0  0  0
   10.0124    0.3505   22.3542 C   0  0  0  0  0  0  0  0  0  0  0  0
   10.7206   -0.6222   21.6425 C   0  0  0  0  0  0  0  0  0  0  0  0
   12.0888   -0.5064   21.5012 C   0  0  0  0  0  0  0  0  0  0  0  0
   12.9336   -1.7829   20.6597 Cl  0  0  0  0  0  0  0  0  0  0  0  0
   12.7778    0.6379   21.9097 C   0  0  0  0  0  0  0  0  0  0  0  0
   12.0619    1.6462   22.5296 C   0  0  0  0  0  0  0  0  0  0  0  0
   10.6993    1.4944   22.7784 C   0  0  0  0  0  0  0  0  0  0  0  0
    9.9628    2.6661   23.3546 C   0  0  0  0  0  0  0  0  0  0  0  0
   10.5069    3.7557   23.5097 O   0  0  0  0  0  0  0  0  0  0  0  0
   12.5235    2.5803   22.8346 H   0  0  0  0  0  0  0  0  0  0  0  0
   13.8400    0.7319   21.7089 H   0  0  0  0  0  0  0  0  0  0  0  0
   10.2146   -1.4633   21.1774 H   0  0  0  0  0  0  0  0  0  0  0  0
    8.4925    0.6340   24.6555 H   0  0  0  0  0  0  0  0  0  0  0  0
    7.0229    1.1674   23.8016 H   0  0  0  0  0  0  0  0  0  0  0  0
    8.4116    4.2535   24.5707 H   0  0  0  0  0  0  0  0  0  0  0  0
    6.9795    3.2241   24.5538 H   0  0  0  0  0  0  0  0  0  0  0  0
    6.6612    3.6187   22.1202 H   0  0  0  0  0  0  0  0  0  0  0  0
    8.1675    4.5053   22.0339 H   0  0  0  0  0  0  0  0  0  0  0  0
    5.9878    5.7037   22.0784 H   0  0  0  0  0  0  0  0  0  0  0  0
    7.9651    6.7998   21.8560 H   0  0  0  0  0  0  0  0  0  0  0  0
    7.2745    8.9574   23.0062 H   0  0  0  0  0  0  0  0  0  0  0  0
    5.9779    8.1220   22.1174 H   0  0  0  0  0  0  0  0  0  0  0  0
    4.3509    7.1019   25.0593 H   0  0  0  0  0  0  0  0  0  0  0  0
    4.2841    7.1523   23.2851 H   0  0  0  0  0  0  0  0  0  0  0  0
    6.1108    5.4245   24.9964 H   0  0  0  0  0  0  0  0  0  0  0  0
    3.7540    4.6043   24.6429 H   0  0  0  0  0  0  0  0  0  0  0  0
    3.9680    4.8125   22.8932 H   0  0  0  0  0  0  0  0  0  0  0  0
    4.8852    3.5659   23.7538 H   0  0  0  0  0  0  0  0  0  0  0  0
  1  2  1  0
  2  3  1  0
  3  4  1  0
  4  5  1  0
  5  6  1  0
  6  7  1  0
  7  8  1  0
  7  9  1  0
  7 10  1  0
  6 11  1  0
 11 12  1  0
 12 13  1  0
 13 14  1  0
 14 15  1  0
 16 15  1  1
 16 17  1  0
 17 18  2  0
 17 19  1  0
 19 20  1  0
 20 21  2  0
 21 22  1  0
 22 23  2  0
 23 24  1  0
 24 25  2  0
 25 26  1  0
 26 27  2  0
 27 28  1  0
 28 29  2  0
 28 30  1  0
 27 31  1  0
 26 32  1  0
 25 33  1  0
 23 34  1  0
 21 35  1  0
 19 36  1  0
 36 37  1  0
 37 38  1  0
 38 39  1  0
 38 40  1  0
 38 41  1  0
 37 42  1  6
 36 43  1  0
 36 44  1  0
 16 45  1  0
 45 46  2  0
 46 47  1  0
 47 48  1  0
 47 49  2  0
 49 50  1  0
 50 51  2  0
 51 52  1  0
 52 53  2  0
 50 54  1  0
 49 55  1  0
 46 56  1  0
 15 57  1  0
 15 58  1  0
 13 59  1  0
 13 60  1  0
 12 61  1  0
 12 62  1  0
 11 63  1  0
  6 64  1  6
  5 65  1  0
  5 66  1  0
  3 67  1  0
  3 68  1  0
  2 69  1  1
  1 70  1  0
  1 71  1  0
  1 72  1  0
 11  2  1  0
 52 14  1  0
 37 16  1  0
 51 45  1  0
 29 20  1  0
 29 24  1  0
M  CHG  1  11   1
M  END
>  <cnnaffinities>  (83) 
[6.6558, 6.38195, 6.40349, 6.57662, 6.27095]

>  <score>  (83) 
6.6558

>  <index>  (83) 
83

>  <Smiles>  (83) 
C([C@@]1(C(OC([C@@](C([H])([H])[H])([N+]1(C(C(N1C([C@@]2(C(=O)N(c3c(nc(c4c(c(c(c(c34)[H])[H])[H])[H])[H])[H])C([C@@]2(C([H])([H])[H])[H])([H])[H])c2c(c(Cl)c(c(c2C1=O)[H])[H])[H])([H])[H])([H])[H])([H])[H])[H])[H])([H])[H])([H])[H])[H])([H])([H])[H]

>  <h>  (83) 
<NA>

>  <Training>  (83) 
True

>  <Success>  (83) 
True

>  <enamine_searched>  (83) 
False

>  <enamine_id>  (83) 
nan

$$$$

     RDKit          3D

 60 65  0  0  0  0  0  0  0  0999 V2000
    6.9235    5.7453   26.8989 C   0  0  0  0  0  0  0  0  0  0  0  0
    7.0500    5.3290   25.5197 N   0  0  0  0  0  0  0  0  0  0  0  0
    7.5127    4.0835   25.2142 C   0  0  0  0  0  0  0  0  0  0  0  0
    7.6958    3.2309   26.0687 O   0  0  0  0  0  0  0  0  0  0  0  0
    7.7700    3.8119   23.7486 C   0  0  0  0  0  0  0  0  0  0  0  0
    8.6043    2.6895   23.4440 N   0  0  0  0  0  0  0  0  0  0  0  0
    8.0618    1.3662   23.6599 C   0  0  0  0  0  0  0  0  0  0  0  0
    8.4947    0.3737   22.5534 C   0  0  2  0  0  0  0  0  0  0  0  0
    7.7717    0.6873   21.2270 C   0  0  0  0  0  0  0  0  0  0  0  0
    7.9421    1.6439   20.5043 O   0  0  0  0  0  0  0  0  0  0  0  0
    6.8596   -0.3118   20.9723 N   0  0  0  0  0  0  0  0  0  0  0  0
    5.8892   -0.1683   19.9514 C   0  0  0  0  0  0  0  0  0  0  0  0
    6.0776   -0.7978   18.7508 C   0  0  0  0  0  0  0  0  0  0  0  0
    5.2548   -0.6603   17.6830 N   0  0  0  0  0  0  0  0  0  0  0  0
    4.1944    0.0966   17.8345 C   0  0  0  0  0  0  0  0  0  0  0  0
    3.8554    0.7662   19.0466 C   0  0  0  0  0  0  0  0  0  0  0  0
    2.6760    1.5469   19.1750 C   0  0  0  0  0  0  0  0  0  0  0  0
    2.3613    2.1498   20.3604 C   0  0  0  0  0  0  0  0  0  0  0  0
    3.2231    2.0235   21.4740 C   0  0  0  0  0  0  0  0  0  0  0  0
    4.3713    1.2757   21.3769 C   0  0  0  0  0  0  0  0  0  0  0  0
    4.7204    0.6285   20.1542 C   0  0  0  0  0  0  0  0  0  0  0  0
    5.0143    1.1801   22.2485 H   0  0  0  0  0  0  0  0  0  0  0  0
    2.9806    2.5288   22.4064 H   0  0  0  0  0  0  0  0  0  0  0  0
    1.4477    2.7330   20.4531 H   0  0  0  0  0  0  0  0  0  0  0  0
    2.0424    1.6723   18.3020 H   0  0  0  0  0  0  0  0  0  0  0  0
    3.5213    0.1957   16.9802 H   0  0  0  0  0  0  0  0  0  0  0  0
    6.9407   -1.4472   18.6057 H   0  0  0  0  0  0  0  0  0  0  0  0
    6.7712   -1.3178   22.0015 C   0  0  0  0  0  0  0  0  0  0  0  0
    8.0377   -1.0913   22.8393 C   0  0  2  0  0  0  0  0  0  0  0  0
    7.8432   -1.4984   24.2968 C   0  0  0  0  0  0  0  0  0  0  0  0
    8.7485   -1.3588   24.8984 H   0  0  0  0  0  0  0  0  0  0  0  0
    7.5627   -2.5552   24.3663 H   0  0  0  0  0  0  0  0  0  0  0  0
    7.0372   -0.9149   24.7556 H   0  0  0  0  0  0  0  0  0  0  0  0
    8.8172   -1.7304   22.4277 H   0  0  0  0  0  0  0  0  0  0  0  0
    5.8680   -1.1878   22.6164 H   0  0  0  0  0  0  0  0  0  0  0  0
    6.7337   -2.3157   21.5517 H   0  0  0  0  0  0  0  0  0  0  0  0
    9.9937    0.5099   22.3584 C   0  0  0  0  0  0  0  0  0  0  0  0
   10.7025   -0.4933   21.6822 C   0  0  0  0  0  0  0  0  0  0  0  0
   12.0729   -0.3993   21.5370 C   0  0  0  0  0  0  0  0  0  0  0  0
   12.9114   -1.6850   20.7043 Cl  0  0  0  0  0  0  0  0  0  0  0  0
   12.7694    0.7431   21.9358 C   0  0  0  0  0  0  0  0  0  0  0  0
   12.0631    1.7747   22.5269 C   0  0  0  0  0  0  0  0  0  0  0  0
   10.6864    1.6664   22.7419 C   0  0  0  0  0  0  0  0  0  0  0  0
    9.9598    2.8648   23.2731 C   0  0  0  0  0  0  0  0  0  0  0  0
   10.5132    3.9363   23.4775 O   0  0  0  0  0  0  0  0  0  0  0  0
   12.5561    2.6991   22.8132 H   0  0  0  0  0  0  0  0  0  0  0  0
   13.8354    0.8165   21.7442 H   0  0  0  0  0  0  0  0  0  0  0  0
   10.1989   -1.3477   21.2409 H   0  0  0  0  0  0  0  0  0  0  0  0
    6.9768    1.4603   23.7095 H   0  0  0  0  0  0  0  0  0  0  0  0
    8.4163    0.9936   24.6269 H   0  0  0  0  0  0  0  0  0  0  0  0
    6.5547    3.9989   22.8489 C   0  0  0  0  0  0  0  0  0  0  0  0
    7.7339    4.8957   22.7086 C   0  0  0  0  0  0  0  0  0  0  0  0
    8.3685    4.7041   21.8549 H   0  0  0  0  0  0  0  0  0  0  0  0
    7.7126    5.9354   23.0116 H   0  0  0  0  0  0  0  0  0  0  0  0
    5.6509    4.3758   23.3132 H   0  0  0  0  0  0  0  0  0  0  0  0
    6.4158    3.2472   22.0799 H   0  0  0  0  0  0  0  0  0  0  0  0
    6.5786    5.8603   24.8082 H   0  0  0  0  0  0  0  0  0  0  0  0
    6.4974    4.9280   27.4837 H   0  0  0  0  0  0  0  0  0  0  0  0
    6.2810    6.6261   26.9617 H   0  0  0  0  0  0  0  0  0  0  0  0
    7.9055    5.9947   27.3121 H   0  0  0  0  0  0  0  0  0  0  0  0
  1  2  1  0
  2  3  1  0
  3  4  2  0
  3  5  1  0
  5  6  1  0
  6  7  1  0
  8  7  1  1
  8  9  1  0
  9 10  2  0
  9 11  1  0
 11 12  1  0
 12 13  2  0
 13 14  1  0
 14 15  2  0
 15 16  1  0
 16 17  2  0
 17 18  1  0
 18 19  2  0
 19 20  1  0
 20 21  2  0
 20 22  1  0
 19 23  1  0
 18 24  1  0
 17 25  1  0
 15 26  1  0
 13 27  1  0
 11 28  1  0
 28 29  1  0
 29 30  1  0
 30 31  1  0
 30 32  1  0
 30 33  1  0
 29 34  1  6
 28 35  1  0
 28 36  1  0
  8 37  1  0
 37 38  2  0
 38 39  1  0
 39 40  1  0
 39 41  2  0
 41 42  1  0
 42 43  2  0
 43 44  1  0
 44 45  2  0
 42 46  1  0
 41 47  1  0
 38 48  1  0
  7 49  1  0
  7 50  1  0
  5 51  1  0
 51 52  1  0
 52 53  1  0
 52 54  1  0
 51 55  1  0
 51 56  1  0
  2 57  1  0
  1 58  1  0
  1 59  1  0
  1 60  1  0
 52  5  1  0
 44  6  1  0
 29  8  1  0
 43 37  1  0
 21 12  1  0
 21 16  1  0
M  END
>  <cnnaffinities>  (84) 
[6.15437, 6.31384, 6.14014]

>  <score>  (84) 
6.15437

>  <index>  (84) 
84

>  <Smiles>  (84) 
C(N(C(=O)C1(N2C([C@@]3(C(=O)N(c4c(nc(c5c(c(c(c(c45)[H])[H])[H])[H])[H])[H])C([C@@]3(C([H])([H])[H])[H])([H])[H])c3c(c(Cl)c(c(c3C2=O)[H])[H])[H])([H])[H])C(C1([H])[H])([H])[H])[H])([H])([H])[H]

>  <h>  (84) 
<NA>

>  <Training>  (84) 
True

>  <Success>  (84) 
True

>  <enamine_searched>  (84) 
False

>  <enamine_id>  (84) 
nan

$$$$

     RDKit          3D

 55 60  0  0  0  0  0  0  0  0999 V2000
   10.0636    0.6758   22.4468 C   0  0  0  0  0  0  0  0  0  0  0  0
    8.6289    0.1689   22.4279 C   0  0  1  0  0  0  0  0  0  0  0  0
    7.8130    0.7078   21.2423 C   0  0  0  0  0  0  0  0  0  0  0  0
    6.7970   -0.3169   21.0524 N   0  0  0  0  0  0  0  0  0  0  0  0
    5.8600   -0.2064   19.9977 C   0  0  0  0  0  0  0  0  0  0  0  0
    6.0783   -0.8159   18.7898 C   0  0  0  0  0  0  0  0  0  0  0  0
    5.2962   -0.6358   17.6972 N   0  0  0  0  0  0  0  0  0  0  0  0
    4.2429    0.1356   17.8269 C   0  0  0  0  0  0  0  0  0  0  0  0
    3.8739    0.7903   19.0374 C   0  0  0  0  0  0  0  0  0  0  0  0
    2.7019    1.5824   19.1550 C   0  0  0  0  0  0  0  0  0  0  0  0
    2.3794    2.1627   20.3513 C   0  0  0  0  0  0  0  0  0  0  0  0
    3.2247    2.0107   21.4727 C   0  0  0  0  0  0  0  0  0  0  0  0
    4.3769    1.2704   21.3778 C   0  0  0  0  0  0  0  0  0  0  0  0
    4.7151    0.6308   20.1584 C   0  0  0  0  0  0  0  0  0  0  0  0
    5.0333    1.1501   22.2329 H   0  0  0  0  0  0  0  0  0  0  0  0
    2.9627    2.4859   22.4129 H   0  0  0  0  0  0  0  0  0  0  0  0
    1.4713    2.7518   20.4476 H   0  0  0  0  0  0  0  0  0  0  0  0
    2.0792    1.7265   18.2779 H   0  0  0  0  0  0  0  0  0  0  0  0
    3.6065    0.2510   16.9501 H   0  0  0  0  0  0  0  0  0  0  0  0
    6.9353   -1.4708   18.6508 H   0  0  0  0  0  0  0  0  0  0  0  0
    7.1795   -1.5533   21.5382 C   0  0  0  0  0  0  0  0  0  0  0  0
    6.5869   -2.5893   21.3102 O   0  0  0  0  0  0  0  0  0  0  0  0
    8.4559   -1.3978   22.3767 C   0  0  1  0  0  0  0  0  0  0  0  0
    9.5875   -2.1520   21.6127 C   0  0  0  0  0  0  0  0  0  0  0  0
   10.7847   -2.3701   22.4157 N   0  0  0  0  0  0  0  0  0  0  0  0
   12.1371   -2.3051   21.8612 C   0  0  0  0  0  0  0  0  0  0  0  0
   12.9093   -1.0979   22.2598 C   0  0  0  0  0  0  0  0  0  0  0  0
   13.5355   -0.9133   23.4415 C   0  0  0  0  0  0  0  0  0  0  0  0
   14.1877    0.2774   23.3842 O   0  0  0  0  0  0  0  0  0  0  0  0
   13.9451    0.7371   22.1458 C   0  0  0  0  0  0  0  0  0  0  0  0
   13.1877   -0.0265   21.4272 N   0  0  0  0  0  0  0  0  0  0  0  0
   14.4409    1.6539   21.8573 H   0  0  0  0  0  0  0  0  0  0  0  0
   13.6418   -1.5430   24.3136 H   0  0  0  0  0  0  0  0  0  0  0  0
   12.1375   -2.3987   20.7722 H   0  0  0  0  0  0  0  0  0  0  0  0
   12.6995   -3.1220   22.3197 H   0  0  0  0  0  0  0  0  0  0  0  0
   10.7079   -2.7935   23.7127 C   0  0  0  0  0  0  0  0  0  0  0  0
   11.6915   -3.2190   24.3155 O   0  0  0  0  0  0  0  0  0  0  0  0
    9.3772   -2.6563   24.3759 C   0  0  0  0  0  0  0  0  0  0  0  0
    9.2720   -3.1191   25.6863 C   0  0  0  0  0  0  0  0  0  0  0  0
    8.1015   -2.9915   26.4085 C   0  0  0  0  0  0  0  0  0  0  0  0
    7.0200   -2.3807   25.7857 C   0  0  0  0  0  0  0  0  0  0  0  0
    5.8715   -2.2501   26.4745 F   0  0  0  0  0  0  0  0  0  0  0  0
    7.0959   -1.8985   24.4876 C   0  0  0  0  0  0  0  0  0  0  0  0
    8.2948   -2.0183   23.7591 C   0  0  0  0  0  0  0  0  0  0  0  0
    6.2063   -1.4483   24.0585 H   0  0  0  0  0  0  0  0  0  0  0  0
    8.0211   -3.3410   27.4345 H   0  0  0  0  0  0  0  0  0  0  0  0
   10.1480   -3.5724   26.1341 H   0  0  0  0  0  0  0  0  0  0  0  0
    9.8866   -1.5675   20.7381 H   0  0  0  0  0  0  0  0  0  0  0  0
    9.1744   -3.1145   21.2701 H   0  0  0  0  0  0  0  0  0  0  0  0
    8.4267    0.8450   20.3354 H   0  0  0  0  0  0  0  0  0  0  0  0
    7.3546    1.6823   21.4468 H   0  0  0  0  0  0  0  0  0  0  0  0
    8.1204    0.4988   23.3466 H   0  0  0  0  0  0  0  0  0  0  0  0
   10.1027    1.7656   22.5577 H   0  0  0  0  0  0  0  0  0  0  0  0
   10.6217    0.2159   23.2672 H   0  0  0  0  0  0  0  0  0  0  0  0
   10.5852    0.4095   21.5231 H   0  0  0  0  0  0  0  0  0  0  0  0
  1  2  1  0
  2  3  1  0
  3  4  1  0
  4  5  1  0
  5  6  2  0
  6  7  1  0
  7  8  2  0
  8  9  1  0
  9 10  2  0
 10 11  1  0
 11 12  2  0
 12 13  1  0
 13 14  2  0
 13 15  1  0
 12 16  1  0
 11 17  1  0
 10 18  1  0
  8 19  1  0
  6 20  1  0
  4 21  1  0
 21 22  2  0
 21 23  1  0
 23 24  1  6
 24 25  1  0
 25 26  1  0
 26 27  1  0
 27 28  2  0
 28 29  1  0
 29 30  1  0
 30 31  2  0
 30 32  1  0
 28 33  1  0
 26 34  1  0
 26 35  1  0
 25 36  1  0
 36 37  2  0
 36 38  1  0
 38 39  2  0
 39 40  1  0
 40 41  2  0
 41 42  1  0
 41 43  1  0
 43 44  2  0
 43 45  1  0
 40 46  1  0
 39 47  1  0
 24 48  1  0
 24 49  1  0
  3 50  1  0
  3 51  1  0
  2 52  1  1
  1 53  1  0
  1 54  1  0
  1 55  1  0
 23  2  1  0
 31 27  1  0
 44 38  1  0
 14  5  1  0
 44 23  1  0
 14  9  1  0
M  END
>  <cnnaffinities>  (85) 
[6.55399]

>  <score>  (85) 
6.55399

>  <index>  (85) 
85

>  <Smiles>  (85) 
C([C@]1(C(N(c2c(nc(c3c(c(c(c(c23)[H])[H])[H])[H])[H])[H])C(=O)[C@]21C(N(C(c1c(oc(n1)[H])[H])([H])[H])C(=O)c1c(c(c(F)c(c21)[H])[H])[H])([H])[H])([H])[H])[H])([H])([H])[H]

>  <h>  (85) 
<NA>

>  <Training>  (85) 
True

>  <Success>  (85) 
True

>  <enamine_searched>  (85) 
False

>  <enamine_id>  (85) 
nan

$$$$

     RDKit          3D

 65 70  0  0  0  0  0  0  0  0999 V2000
    7.1970    6.3583   21.6522 C   0  0  0  0  0  0  0  0  0  0  0  0
    7.4596    5.5307   22.8109 N   0  0  0  0  0  0  0  0  0  0  0  0
    6.7919    4.3511   22.9423 C   0  0  0  0  0  0  0  0  0  0  0  0
    5.9284    3.9704   22.1699 O   0  0  0  0  0  0  0  0  0  0  0  0
    7.2211    3.5198   24.1545 C   0  0  0  0  0  0  0  0  0  0  0  0
    8.1794    2.4970   23.7537 N   0  0  0  0  0  0  0  0  0  0  0  0
    7.8346    1.0841   23.8090 C   0  0  0  0  0  0  0  0  0  0  0  0
    8.4320    0.2843   22.6123 C   0  0  2  0  0  0  0  0  0  0  0  0
    7.7274    0.6595   21.2896 C   0  0  0  0  0  0  0  0  0  0  0  0
    7.8988    1.6369   20.5951 O   0  0  0  0  0  0  0  0  0  0  0  0
    6.8187   -0.3315   20.9965 N   0  0  0  0  0  0  0  0  0  0  0  0
    5.8817   -0.1696   19.9571 C   0  0  0  0  0  0  0  0  0  0  0  0
    6.0826   -0.7871   18.7517 C   0  0  0  0  0  0  0  0  0  0  0  0
    5.2737   -0.6458   17.6752 N   0  0  0  0  0  0  0  0  0  0  0  0
    4.2114    0.1114   17.8203 C   0  0  0  0  0  0  0  0  0  0  0  0
    3.8626    0.7730   19.0329 C   0  0  0  0  0  0  0  0  0  0  0  0
    2.6897    1.5644   19.1529 C   0  0  0  0  0  0  0  0  0  0  0  0
    2.3631    2.1491   20.3436 C   0  0  0  0  0  0  0  0  0  0  0  0
    3.2170    2.0143   21.4602 C   0  0  0  0  0  0  0  0  0  0  0  0
    4.3777    1.2884   21.3608 C   0  0  0  0  0  0  0  0  0  0  0  0
    4.7187    0.6354   20.1450 C   0  0  0  0  0  0  0  0  0  0  0  0
    5.0549    1.2355   22.2095 H   0  0  0  0  0  0  0  0  0  0  0  0
    2.9678    2.5064   22.3939 H   0  0  0  0  0  0  0  0  0  0  0  0
    1.4453    2.7220   20.4391 H   0  0  0  0  0  0  0  0  0  0  0  0
    2.0720    1.7040   18.2727 H   0  0  0  0  0  0  0  0  0  0  0  0
    3.5560    0.2166   16.9559 H   0  0  0  0  0  0  0  0  0  0  0  0
    6.9589   -1.4183   18.6170 H   0  0  0  0  0  0  0  0  0  0  0  0
    6.8250   -1.4569   21.8951 C   0  0  0  0  0  0  0  0  0  0  0  0
    8.1147   -1.2368   22.6892 C   0  0  2  0  0  0  0  0  0  0  0  0
    8.0625   -1.8891   24.0737 C   0  0  0  0  0  0  0  0  0  0  0  0
    7.9577   -3.3350   23.9733 N   0  0  0  0  0  0  0  0  0  0  0  0
    6.8078   -4.0306   24.0434 C   0  0  0  0  0  0  0  0  0  0  0  0
    5.6660   -3.3727   24.3350 N   0  0  0  0  0  0  0  0  0  0  0  0
    4.5897   -4.1487   24.3858 C   0  0  0  0  0  0  0  0  0  0  0  0
    4.5467   -5.4599   24.1636 N   0  0  0  0  0  0  0  0  0  0  0  0
    5.7381   -5.9966   23.8830 C   0  0  0  0  0  0  0  0  0  0  0  0
    6.8958   -5.3634   23.8117 N   0  0  0  0  0  0  0  0  0  0  0  0
    5.7342   -7.0741   23.6985 H   0  0  0  0  0  0  0  0  0  0  0  0
    3.6452   -3.6642   24.6365 H   0  0  0  0  0  0  0  0  0  0  0  0
    8.7822   -3.8792   23.7687 H   0  0  0  0  0  0  0  0  0  0  0  0
    8.9705   -1.6432   24.6349 H   0  0  0  0  0  0  0  0  0  0  0  0
    7.1916   -1.5447   24.6434 H   0  0  0  0  0  0  0  0  0  0  0  0
    8.9031   -1.7410   22.1222 H   0  0  0  0  0  0  0  0  0  0  0  0
    6.8456   -2.4013   21.3429 H   0  0  0  0  0  0  0  0  0  0  0  0
    5.9335   -1.4801   22.5369 H   0  0  0  0  0  0  0  0  0  0  0  0
    9.9034    0.6252   22.5068 C   0  0  0  0  0  0  0  0  0  0  0  0
   10.8055   -0.2423   21.8759 C   0  0  0  0  0  0  0  0  0  0  0  0
   12.1554    0.0570   21.8659 C   0  0  0  0  0  0  0  0  0  0  0  0
   13.2800   -1.1166   21.2322 Cl  0  0  0  0  0  0  0  0  0  0  0  0
   12.6420    1.2669   22.3591 C   0  0  0  0  0  0  0  0  0  0  0  0
   11.7374    2.1822   22.8649 C   0  0  0  0  0  0  0  0  0  0  0  0
   10.3799    1.8668   22.9467 C   0  0  0  0  0  0  0  0  0  0  0  0
    9.4423    2.9107   23.4631 C   0  0  0  0  0  0  0  0  0  0  0  0
    9.7882    4.0843   23.5917 O   0  0  0  0  0  0  0  0  0  0  0  0
   12.0595    3.1609   23.2038 H   0  0  0  0  0  0  0  0  0  0  0  0
   13.7108    1.4615   22.3217 H   0  0  0  0  0  0  0  0  0  0  0  0
   10.4886   -1.1476   21.3637 H   0  0  0  0  0  0  0  0  0  0  0  0
    6.7411    1.0027   23.8172 H   0  0  0  0  0  0  0  0  0  0  0  0
    8.2233    0.6628   24.7463 H   0  0  0  0  0  0  0  0  0  0  0  0
    6.3428    3.0297   24.5800 H   0  0  0  0  0  0  0  0  0  0  0  0
    7.6452    4.1688   24.9276 H   0  0  0  0  0  0  0  0  0  0  0  0
    8.4019    5.5129   23.1893 H   0  0  0  0  0  0  0  0  0  0  0  0
    6.1793    6.7549   21.6990 H   0  0  0  0  0  0  0  0  0  0  0  0
    7.2942    5.7906   20.7219 H   0  0  0  0  0  0  0  0  0  0  0  0
    7.9072    7.1867   21.6590 H   0  0  0  0  0  0  0  0  0  0  0  0
  1  2  1  0
  2  3  1  0
  3  4  2  0
  3  5  1  0
  5  6  1  0
  6  7  1  0
  8  7  1  1
  8  9  1  0
  9 10  2  0
  9 11  1  0
 11 12  1  0
 12 13  2  0
 13 14  1  0
 14 15  2  0
 15 16  1  0
 16 17  2  0
 17 18  1  0
 18 19  2  0
 19 20  1  0
 20 21  2  0
 20 22  1  0
 19 23  1  0
 18 24  1  0
 17 25  1  0
 15 26  1  0
 13 27  1  0
 11 28  1  0
 28 29  1  0
 29 30  1  0
 30 31  1  0
 31 32  1  0
 32 33  2  0
 33 34  1  0
 34 35  2  0
 35 36  1  0
 36 37  2  0
 36 38  1  0
 34 39  1  0
 31 40  1  0
 30 41  1  0
 30 42  1  0
 29 43  1  6
 28 44  1  0
 28 45  1  0
  8 46  1  0
 46 47  2  0
 47 48  1  0
 48 49  1  0
 48 50  2  0
 50 51  1  0
 51 52  2  0
 52 53  1  0
 53 54  2  0
 51 55  1  0
 50 56  1  0
 47 57  1  0
  7 58  1  0
  7 59  1  0
  5 60  1  0
  5 61  1  0
  2 62  1  0
  1 63  1  0
  1 64  1  0
  1 65  1  0
 53  6  1  0
 29  8  1  0
 37 32  1  0
 52 46  1  0
 21 12  1  0
 21 16  1  0
M  END
>  <cnnaffinities>  (86) 
[6.77476, 6.56728, 6.56947]

>  <score>  (86) 
6.77476

>  <index>  (86) 
86

>  <Smiles>  (86) 
C(N(C(=O)C(N1C([C@@]2(C(=O)N(c3c(nc(c4c(c(c(c(c34)[H])[H])[H])[H])[H])[H])C([C@@]2(C(N(c2nc(nc(n2)[H])[H])[H])([H])[H])[H])([H])[H])c2c(c(Cl)c(c(c2C1=O)[H])[H])[H])([H])[H])([H])[H])[H])([H])([H])[H]

>  <h>  (86) 
<NA>

>  <Training>  (86) 
True

>  <Success>  (86) 
True

>  <enamine_searched>  (86) 
False

>  <enamine_id>  (86) 
nan

$$$$

     RDKit          3D

 63 68  0  0  0  0  0  0  0  0999 V2000
    7.0539    6.1697   21.1434 C   0  0  0  0  0  0  0  0  0  0  0  0
    7.6080    5.3661   22.2155 N   0  0  0  0  0  0  0  0  0  0  0  0
    6.9441    4.2856   22.6967 C   0  0  0  0  0  0  0  0  0  0  0  0
    5.9359    3.8346   22.1733 O   0  0  0  0  0  0  0  0  0  0  0  0
    7.5400    3.6546   23.9618 C   0  0  0  0  0  0  0  0  0  0  0  0
    8.4233    2.5513   23.6050 N   0  0  0  0  0  0  0  0  0  0  0  0
    7.9681    1.1735   23.7105 C   0  0  0  0  0  0  0  0  0  0  0  0
    8.4967    0.2680   22.5552 C   0  0  2  0  0  0  0  0  0  0  0  0
    7.7853    0.6099   21.2272 C   0  0  0  0  0  0  0  0  0  0  0  0
    8.0117    1.5311   20.4746 O   0  0  0  0  0  0  0  0  0  0  0  0
    6.8097   -0.3357   21.0083 N   0  0  0  0  0  0  0  0  0  0  0  0
    5.8801   -0.1701   19.9614 C   0  0  0  0  0  0  0  0  0  0  0  0
    6.1043   -0.7664   18.7508 C   0  0  0  0  0  0  0  0  0  0  0  0
    5.2955   -0.6306   17.6740 N   0  0  0  0  0  0  0  0  0  0  0  0
    4.2226    0.1125   17.8137 C   0  0  0  0  0  0  0  0  0  0  0  0
    3.8644    0.7722   19.0249 C   0  0  0  0  0  0  0  0  0  0  0  0
    2.6923    1.5669   19.1420 C   0  0  0  0  0  0  0  0  0  0  0  0
    2.3616    2.1485   20.3344 C   0  0  0  0  0  0  0  0  0  0  0  0
    3.2084    2.0052   21.4574 C   0  0  0  0  0  0  0  0  0  0  0  0
    4.3666    1.2736   21.3610 C   0  0  0  0  0  0  0  0  0  0  0  0
    4.7122    0.6283   20.1430 C   0  0  0  0  0  0  0  0  0  0  0  0
    5.0415    1.2122   22.2107 H   0  0  0  0  0  0  0  0  0  0  0  0
    2.9562    2.4941   22.3933 H   0  0  0  0  0  0  0  0  0  0  0  0
    1.4504    2.7355   20.4256 H   0  0  0  0  0  0  0  0  0  0  0  0
    2.0798    1.7156   18.2588 H   0  0  0  0  0  0  0  0  0  0  0  0
    3.5696    0.2206   16.9453 H   0  0  0  0  0  0  0  0  0  0  0  0
    6.9903   -1.3829   18.6118 H   0  0  0  0  0  0  0  0  0  0  0  0
    6.7806   -1.4196   21.9577 C   0  0  0  0  0  0  0  0  0  0  0  0
    8.0820   -1.2192   22.7363 C   0  0  2  0  0  0  0  0  0  0  0  0
    8.0096   -1.7531   24.1641 C   0  0  0  0  0  0  0  0  0  0  0  0
    7.7653   -3.1811   24.1781 N   0  0  0  0  0  0  0  0  0  0  0  0
    6.5681   -3.8111   24.2247 C   0  0  0  0  0  0  0  0  0  0  0  0
    6.8228   -5.1618   24.1321 C   0  0  0  0  0  0  0  0  0  0  0  0
    8.2251   -5.2344   24.0059 C   0  0  0  0  0  0  0  0  0  0  0  0
    8.7841   -4.0303   24.0111 N   0  0  0  0  0  0  0  0  0  0  0  0
    8.8539   -6.1138   23.9265 H   0  0  0  0  0  0  0  0  0  0  0  0
    6.1125   -5.9789   24.1744 H   0  0  0  0  0  0  0  0  0  0  0  0
    5.6387   -3.2593   24.3153 H   0  0  0  0  0  0  0  0  0  0  0  0
    7.1989   -1.2693   24.7113 H   0  0  0  0  0  0  0  0  0  0  0  0
    8.9496   -1.5642   24.6852 H   0  0  0  0  0  0  0  0  0  0  0  0
    8.8339   -1.8204   22.2297 H   0  0  0  0  0  0  0  0  0  0  0  0
    5.8919   -1.3821   22.6039 H   0  0  0  0  0  0  0  0  0  0  0  0
    6.7594   -2.3889   21.4518 H   0  0  0  0  0  0  0  0  0  0  0  0
    9.9895    0.4950   22.4188 C   0  0  0  0  0  0  0  0  0  0  0  0
   10.8250   -0.4756   21.8444 C   0  0  0  0  0  0  0  0  0  0  0  0
   12.1930   -0.2792   21.8079 C   0  0  0  0  0  0  0  0  0  0  0  0
   13.2167   -1.5523   21.1991 Cl  0  0  0  0  0  0  0  0  0  0  0  0
   12.7656    0.9193   22.2255 C   0  0  0  0  0  0  0  0  0  0  0  0
   11.9367    1.9228   22.6921 C   0  0  0  0  0  0  0  0  0  0  0  0
   10.5576    1.7250   22.7859 C   0  0  0  0  0  0  0  0  0  0  0  0
    9.7004    2.8681   23.2520 C   0  0  0  0  0  0  0  0  0  0  0  0
   10.1112    4.0276   23.2967 O   0  0  0  0  0  0  0  0  0  0  0  0
   12.3534    2.8730   23.0044 H   0  0  0  0  0  0  0  0  0  0  0  0
   13.8425    1.0381   22.1672 H   0  0  0  0  0  0  0  0  0  0  0  0
   10.4335   -1.3855   21.3984 H   0  0  0  0  0  0  0  0  0  0  0  0
    8.2960    0.7629   24.6755 H   0  0  0  0  0  0  0  0  0  0  0  0
    6.8730    1.1810   23.6982 H   0  0  0  0  0  0  0  0  0  0  0  0
    8.1046    4.3938   24.5381 H   0  0  0  0  0  0  0  0  0  0  0  0
    6.7209    3.2842   24.5875 H   0  0  0  0  0  0  0  0  0  0  0  0
    8.5700    5.4819   22.4993 H   0  0  0  0  0  0  0  0  0  0  0  0
    7.8525    6.7867   20.7256 H   0  0  0  0  0  0  0  0  0  0  0  0
    6.6191    5.5270   20.3721 H   0  0  0  0  0  0  0  0  0  0  0  0
    6.2623    6.8258   21.5217 H   0  0  0  0  0  0  0  0  0  0  0  0
  1  2  1  0
  2  3  1  0
  3  4  2  0
  3  5  1  0
  5  6  1  0
  6  7  1  0
  8  7  1  1
  8  9  1  0
  9 10  2  0
  9 11  1  0
 11 12  1  0
 12 13  2  0
 13 14  1  0
 14 15  2  0
 15 16  1  0
 16 17  2  0
 17 18  1  0
 18 19  2  0
 19 20  1  0
 20 21  2  0
 20 22  1  0
 19 23  1  0
 18 24  1  0
 17 25  1  0
 15 26  1  0
 13 27  1  0
 11 28  1  0
 28 29  1  0
 29 30  1  0
 30 31  1  0
 31 32  1  0
 32 33  2  0
 33 34  1  0
 34 35  2  0
 34 36  1  0
 33 37  1  0
 32 38  1  0
 30 39  1  0
 30 40  1  0
 29 41  1  6
 28 42  1  0
 28 43  1  0
  8 44  1  0
 44 45  2  0
 45 46  1  0
 46 47  1  0
 46 48  2  0
 48 49  1  0
 49 50  2  0
 50 51  1  0
 51 52  2  0
 49 53  1  0
 48 54  1  0
 45 55  1  0
  7 56  1  0
  7 57  1  0
  5 58  1  0
  5 59  1  0
  2 60  1  0
  1 61  1  0
  1 62  1  0
  1 63  1  0
 51  6  1  0
 29  8  1  0
 35 31  1  0
 50 44  1  0
 21 12  1  0
 21 16  1  0
M  END
>  <cnnaffinities>  (87) 
[6.73725, 6.16971, 6.51384, 6.34536]

>  <score>  (87) 
6.73725

>  <index>  (87) 
87

>  <Smiles>  (87) 
C(N(C(=O)C(N1C([C@@]2(C(=O)N(c3c(nc(c4c(c(c(c(c34)[H])[H])[H])[H])[H])[H])C([C@@]2(C(n2c(c(c(n2)[H])[H])[H])([H])[H])[H])([H])[H])c2c(c(Cl)c(c(c2C1=O)[H])[H])[H])([H])[H])([H])[H])[H])([H])([H])[H]

>  <h>  (87) 
<NA>

>  <Training>  (87) 
True

>  <Success>  (87) 
True

>  <enamine_searched>  (87) 
False

>  <enamine_id>  (87) 
nan

$$$$

     RDKit          3D

 64 68  0  0  0  0  0  0  0  0999 V2000
    3.5164    3.6007   28.3708 C   0  0  0  0  0  0  0  0  0  0  0  0
    3.5304    2.7563   27.0908 C   0  0  0  0  0  0  0  0  0  0  0  0
    4.9321    2.3999   26.5866 C   0  0  0  0  0  0  0  0  0  0  0  0
    5.5375    3.2339   25.9271 O   0  0  0  0  0  0  0  0  0  0  0  0
    5.3882    1.0894   26.6921 N   0  0  0  0  0  0  0  0  0  0  0  0
    4.8834    0.2404   27.7738 C   0  0  0  0  0  0  0  0  0  0  0  0
    6.0620   -0.5245   28.3689 C   0  0  0  0  0  0  0  0  0  0  0  0
    6.6314   -1.4570   27.2982 C   0  0  0  0  0  0  0  0  0  0  0  0
    6.9148   -0.7004   26.0238 C   0  0  0  0  0  0  0  0  0  0  0  0
    7.7694   -1.2747   25.0746 C   0  0  0  0  0  0  0  0  0  0  0  0
    7.9911   -0.6384   23.8532 C   0  0  0  0  0  0  0  0  0  0  0  0
    7.3944    0.5922   23.5801 C   0  0  0  0  0  0  0  0  0  0  0  0
    7.7267    1.2441   22.3936 N   0  0  0  0  0  0  0  0  0  0  0  0
    8.1683    2.6431   22.4596 C   0  0  0  0  0  0  0  0  0  0  0  0
    9.6397    2.8353   22.7647 C   0  0  0  0  0  0  0  0  0  0  0  0
   10.4086    1.8642   23.4212 C   0  0  0  0  0  0  0  0  0  0  0  0
   11.6648    2.1663   23.9523 C   0  0  0  0  0  0  0  0  0  0  0  0
   12.1688    3.4611   23.8059 C   0  0  0  0  0  0  0  0  0  0  0  0
   11.5017    4.3942   23.0137 C   0  0  0  0  0  0  0  0  0  0  0  0
   12.2881    6.0996   22.6455 Br  0  0  0  0  0  0  0  0  0  0  0  0
   10.2254    4.0863   22.5289 C   0  0  0  0  0  0  0  0  0  0  0  0
    9.6754    4.8454   21.9870 H   0  0  0  0  0  0  0  0  0  0  0  0
   13.0889    3.7520   24.2954 H   0  0  0  0  0  0  0  0  0  0  0  0
   12.2123    1.4051   24.5089 H   0  0  0  0  0  0  0  0  0  0  0  0
   10.0175    0.8753   23.5863 H   0  0  0  0  0  0  0  0  0  0  0  0
    7.9180    3.1649   21.5276 H   0  0  0  0  0  0  0  0  0  0  0  0
    7.6189    3.1402   23.2682 H   0  0  0  0  0  0  0  0  0  0  0  0
    7.6911    0.5632   21.1808 C   0  0  0  0  0  0  0  0  0  0  0  0
    8.2419    1.0567   20.2016 O   0  0  0  0  0  0  0  0  0  0  0  0
    6.7706   -0.6589   20.9744 C   0  0  0  0  0  0  0  0  0  0  0  0
    5.7709   -0.4021   19.8477 C   0  0  0  0  0  0  0  0  0  0  0  0
    5.9855   -0.9348   18.5631 C   0  0  0  0  0  0  0  0  0  0  0  0
    5.2082   -0.6538   17.5037 N   0  0  0  0  0  0  0  0  0  0  0  0
    4.1537    0.1591   17.6987 C   0  0  0  0  0  0  0  0  0  0  0  0
    3.8387    0.7254   18.9401 C   0  0  0  0  0  0  0  0  0  0  0  0
    2.7328    1.5788   19.0970 C   0  0  0  0  0  0  0  0  0  0  0  0
    2.4682    2.1655   20.3378 C   0  0  0  0  0  0  0  0  0  0  0  0
    3.3091    1.9133   21.4251 C   0  0  0  0  0  0  0  0  0  0  0  0
    4.4052    1.0560   21.2744 C   0  0  0  0  0  0  0  0  0  0  0  0
    4.6722    0.4500   20.0378 C   0  0  0  0  0  0  0  0  0  0  0  0
    5.0593    0.8687   22.1203 H   0  0  0  0  0  0  0  0  0  0  0  0
    3.1167    2.3919   22.3813 H   0  0  0  0  0  0  0  0  0  0  0  0
    1.6185    2.8325   20.4531 H   0  0  0  0  0  0  0  0  0  0  0  0
    2.0843    1.8092   18.2574 H   0  0  0  0  0  0  0  0  0  0  0  0
    3.5138    0.3815   16.8513 H   0  0  0  0  0  0  0  0  0  0  0  0
    6.8491   -1.5762   18.4129 H   0  0  0  0  0  0  0  0  0  0  0  0
    7.3852   -1.5345   20.7534 H   0  0  0  0  0  0  0  0  0  0  0  0
    6.2290   -0.8725   21.9019 H   0  0  0  0  0  0  0  0  0  0  0  0
    6.5450    1.1725   24.5301 C   0  0  0  0  0  0  0  0  0  0  0  0
    6.2896    0.5385   25.7578 C   0  0  0  0  0  0  0  0  0  0  0  0
    6.0664    2.1189   24.3021 H   0  0  0  0  0  0  0  0  0  0  0  0
    8.6636   -1.0637   23.1157 H   0  0  0  0  0  0  0  0  0  0  0  0
    8.2688   -2.2172   25.2862 H   0  0  0  0  0  0  0  0  0  0  0  0
    7.5428   -1.9374   27.6603 H   0  0  0  0  0  0  0  0  0  0  0  0
    5.9073   -2.2483   27.0819 H   0  0  0  0  0  0  0  0  0  0  0  0
    6.8223    0.1931   28.6918 H   0  0  0  0  0  0  0  0  0  0  0  0
    5.7435   -1.1045   29.2398 H   0  0  0  0  0  0  0  0  0  0  0  0
    4.4165    0.8447   28.5601 H   0  0  0  0  0  0  0  0  0  0  0  0
    4.1324   -0.4579   27.3873 H   0  0  0  0  0  0  0  0  0  0  0  0
    3.0146    3.2965   26.2903 H   0  0  0  0  0  0  0  0  0  0  0  0
    2.9821    1.8280   27.2690 H   0  0  0  0  0  0  0  0  0  0  0  0
    4.0843    4.5276   28.2280 H   0  0  0  0  0  0  0  0  0  0  0  0
    3.9475    3.0426   29.2095 H   0  0  0  0  0  0  0  0  0  0  0  0
    2.4820    3.8600   28.6282 H   0  0  0  0  0  0  0  0  0  0  0  0
  1  2  1  0
  2  3  1  0
  3  4  2  0
  3  5  1  0
  5  6  1  0
  6  7  1  0
  7  8  1  0
  8  9  1  0
  9 10  2  0
 10 11  1  0
 11 12  2  0
 12 13  1  0
 13 14  1  0
 14 15  1  0
 15 16  2  0
 16 17  1  0
 17 18  2  0
 18 19  1  0
 19 20  1  0
 19 21  2  0
 21 22  1  0
 18 23  1  0
 17 24  1  0
 16 25  1  0
 14 26  1  0
 14 27  1  0
 13 28  1  0
 28 29  2  0
 28 30  1  0
 30 31  1  0
 31 32  2  0
 32 33  1  0
 33 34  2  0
 34 35  1  0
 35 36  2  0
 36 37  1  0
 37 38  2  0
 38 39  1  0
 39 40  2  0
 39 41  1  0
 38 42  1  0
 37 43  1  0
 36 44  1  0
 34 45  1  0
 32 46  1  0
 30 47  1  0
 30 48  1  0
 12 49  1  0
 49 50  2  0
 49 51  1  0
 11 52  1  0
 10 53  1  0
  8 54  1  0
  8 55  1  0
  7 56  1  0
  7 57  1  0
  6 58  1  0
  6 59  1  0
  2 60  1  0
  2 61  1  0
  1 62  1  0
  1 63  1  0
  1 64  1  0
 50  5  1  0
 50  9  1  0
 21 15  1  0
 40 31  1  0
 40 35  1  0
M  END
>  <cnnaffinities>  (88) 
[6.32121, 6.82452, 6.79881, 6.4433, 6.86402]

>  <score>  (88) 
6.32121

>  <index>  (88) 
88

>  <Smiles>  (88) 
C(C(C(=O)N1C(C(C(c2c(c(c(N(C(c3c(c(c(c(Br)c3[H])[H])[H])[H])([H])[H])C(=O)C(c3c(nc(c4c(c(c(c(c34)[H])[H])[H])[H])[H])[H])([H])[H])c(c12)[H])[H])[H])([H])[H])([H])[H])([H])[H])([H])[H])([H])([H])[H]

>  <h>  (88) 
<NA>

>  <Training>  (88) 
True

>  <Success>  (88) 
True

>  <enamine_searched>  (88) 
False

>  <enamine_id>  (88) 
nan

$$$$

     RDKit          3D

 38 40  0  0  0  0  0  0  0  0999 V2000
    5.3903   -1.9741   21.9890 O   0  0  0  0  0  0  0  0  0  0  0  0
    6.4305   -1.3578   22.1339 C   0  0  0  0  0  0  0  0  0  0  0  0
    6.8862   -0.3430   21.0657 C   0  0  0  0  0  0  0  0  0  0  0  0
    5.8665   -0.1760   19.9704 C   0  0  0  0  0  0  0  0  0  0  0  0
    6.0312   -0.8096   18.7689 C   0  0  0  0  0  0  0  0  0  0  0  0
    5.2170   -0.6801   17.6879 N   0  0  0  0  0  0  0  0  0  0  0  0
    4.1618    0.0836   17.8288 C   0  0  0  0  0  0  0  0  0  0  0  0
    3.8184    0.7408   19.0418 C   0  0  0  0  0  0  0  0  0  0  0  0
    2.6321    1.5043   19.1729 C   0  0  0  0  0  0  0  0  0  0  0  0
    2.3196    2.1245   20.3516 C   0  0  0  0  0  0  0  0  0  0  0  0
    3.1959    2.0158   21.4526 C   0  0  0  0  0  0  0  0  0  0  0  0
    4.3541    1.2824   21.3533 C   0  0  0  0  0  0  0  0  0  0  0  0
    4.6942    0.6169   20.1462 C   0  0  0  0  0  0  0  0  0  0  0  0
    5.0141    1.2072   22.2105 H   0  0  0  0  0  0  0  0  0  0  0  0
    2.9470    2.5243   22.3792 H   0  0  0  0  0  0  0  0  0  0  0  0
    1.4065    2.7110   20.4403 H   0  0  0  0  0  0  0  0  0  0  0  0
    1.9783    1.6048   18.3149 H   0  0  0  0  0  0  0  0  0  0  0  0
    3.5063    0.2004   16.9610 H   0  0  0  0  0  0  0  0  0  0  0  0
    6.8708   -1.4863   18.6177 H   0  0  0  0  0  0  0  0  0  0  0  0
    7.8320   -0.6907   20.6206 H   0  0  0  0  0  0  0  0  0  0  0  0
    7.1024    0.6282   21.5332 H   0  0  0  0  0  0  0  0  0  0  0  0
    7.2136   -1.5281   23.2605 N   0  0  0  0  0  0  0  0  0  0  0  0
    6.7824   -2.5788   24.1917 C   0  0  0  0  0  0  0  0  0  0  0  0
    7.1292   -3.9880   23.7576 C   0  0  0  0  0  0  0  0  0  0  0  0
    8.3769   -4.3858   23.5263 C   0  0  0  0  0  0  0  0  0  0  0  0
    9.5928   -3.5057   23.7057 C   0  0  0  0  0  0  0  0  0  0  0  0
    9.5947   -2.2317   22.8458 C   0  0  0  0  0  0  0  0  0  0  0  0
    8.6217   -1.1542   23.3283 C   0  0  0  0  0  0  0  0  0  0  0  0
    8.8454   -0.9353   24.3772 H   0  0  0  0  0  0  0  0  0  0  0  0
    8.7746   -0.2205   22.7822 H   0  0  0  0  0  0  0  0  0  0  0  0
    9.3523   -2.4978   21.8118 H   0  0  0  0  0  0  0  0  0  0  0  0
   10.6110   -1.8132   22.8245 H   0  0  0  0  0  0  0  0  0  0  0  0
    9.6814   -3.2145   24.7620 H   0  0  0  0  0  0  0  0  0  0  0  0
   10.4969   -4.0778   23.4847 H   0  0  0  0  0  0  0  0  0  0  0  0
    8.5282   -5.3946   23.1490 H   0  0  0  0  0  0  0  0  0  0  0  0
    6.3047   -4.6834   23.5986 H   0  0  0  0  0  0  0  0  0  0  0  0
    7.2655   -2.3702   25.1520 H   0  0  0  0  0  0  0  0  0  0  0  0
    5.7071   -2.4853   24.3469 H   0  0  0  0  0  0  0  0  0  0  0  0
  1  2  2  0
  2  3  1  0
  3  4  1  0
  4  5  2  0
  5  6  1  0
  6  7  2  0
  7  8  1  0
  8  9  2  0
  9 10  1  0
 10 11  2  0
 11 12  1  0
 12 13  2  0
 12 14  1  0
 11 15  1  0
 10 16  1  0
  9 17  1  0
  7 18  1  0
  5 19  1  0
  3 20  1  0
  3 21  1  0
  2 22  1  0
 22 23  1  0
 23 24  1  0
 24 25  2  0
 25 26  1  0
 26 27  1  0
 27 28  1  0
 28 29  1  0
 28 30  1  0
 27 31  1  0
 27 32  1  0
 26 33  1  0
 26 34  1  0
 25 35  1  0
 24 36  1  0
 23 37  1  0
 23 38  1  0
 13  4  1  0
 28 22  1  0
 13  8  1  0
M  END
>  <cnnaffinities>  (89) 
[5.08194, 4.90385, 5.02391, 4.80015, 4.89011, 5.10183, 4.78408, 4.89779, 4.93983, 5.12345, 4.7621, 5.12001, 4.81664, 4.92364, 4.73858, 5.04589, 4.9945, 5.0276, 4.97858]

>  <score>  (89) 
5.08194

>  <index>  (89) 
89

>  <Smiles>  (89) 
O=C(C(c1c(nc(c2c(c(c(c(c12)[H])[H])[H])[H])[H])[H])([H])[H])N1C(C(=C(C(C(C1([H])[H])([H])[H])([H])[H])[H])[H])([H])[H]

>  <h>  (89) 
<NA>

>  <Training>  (89) 
True

>  <Success>  (89) 
True

>  <enamine_searched>  (89) 
False

>  <enamine_id>  (89) 
nan

$$$$

     RDKit          3D

 62 67  0  0  0  0  0  0  0  0999 V2000
    8.1331   -1.7551   24.0810 C   0  0  0  0  0  0  0  0  0  0  0  0
    8.1714   -1.1641   22.6769 C   0  0  1  0  0  0  0  0  0  0  0  0
    6.8974   -1.3931   21.8583 C   0  0  0  0  0  0  0  0  0  0  0  0
    6.8863   -0.2630   20.9554 N   0  0  0  0  0  0  0  0  0  0  0  0
    5.9235   -0.1172   19.9356 C   0  0  0  0  0  0  0  0  0  0  0  0
    6.0980   -0.7660   18.7439 C   0  0  0  0  0  0  0  0  0  0  0  0
    5.2725   -0.6406   17.6806 N   0  0  0  0  0  0  0  0  0  0  0  0
    4.2184    0.1270   17.8271 C   0  0  0  0  0  0  0  0  0  0  0  0
    3.8875    0.8037   19.0354 C   0  0  0  0  0  0  0  0  0  0  0  0
    2.7175    1.5988   19.1562 C   0  0  0  0  0  0  0  0  0  0  0  0
    2.3913    2.1796   20.3497 C   0  0  0  0  0  0  0  0  0  0  0  0
    3.2306    2.0174   21.4746 C   0  0  0  0  0  0  0  0  0  0  0  0
    4.3839    1.2771   21.3750 C   0  0  0  0  0  0  0  0  0  0  0  0
    4.7494    0.6647   20.1423 C   0  0  0  0  0  0  0  0  0  0  0  0
    5.0236    1.1561   22.2442 H   0  0  0  0  0  0  0  0  0  0  0  0
    2.9620    2.4847   22.4171 H   0  0  0  0  0  0  0  0  0  0  0  0
    1.4762    2.7581   20.4450 H   0  0  0  0  0  0  0  0  0  0  0  0
    2.0955    1.7354   18.2772 H   0  0  0  0  0  0  0  0  0  0  0  0
    3.5497    0.2216   16.9707 H   0  0  0  0  0  0  0  0  0  0  0  0
    6.9638   -1.4106   18.6060 H   0  0  0  0  0  0  0  0  0  0  0  0
    7.7001    0.7802   21.3254 C   0  0  0  0  0  0  0  0  0  0  0  0
    7.7411    1.8596   20.7560 O   0  0  0  0  0  0  0  0  0  0  0  0
    8.5068    0.3511   22.5662 C   0  0  1  0  0  0  0  0  0  0  0  0
    7.9975    1.1519   23.8043 C   0  0  0  0  0  0  0  0  0  0  0  0
    8.3973    2.5474   23.7834 N   0  0  0  0  0  0  0  0  0  0  0  0
    7.4416    3.5624   24.2099 C   0  0  0  0  0  0  0  0  0  0  0  0
    6.5791    4.0407   23.0519 C   0  0  0  0  0  0  0  0  0  0  0  0
    7.3911    4.8404   22.0972 N   0  0  0  0  0  4  0  0  0  0  0  0
    7.8632    6.2361   22.5608 C   0  0  0  0  0  0  0  0  0  0  0  0
    7.0880    6.9403   21.4154 C   0  0  0  0  0  0  0  0  0  0  0  0
    6.6728    5.5242   20.9266 C   0  0  0  0  0  0  0  0  0  0  0  0
    5.6078    5.2981   20.8998 H   0  0  0  0  0  0  0  0  0  0  0  0
    7.1422    5.2088   19.9992 H   0  0  0  0  0  0  0  0  0  0  0  0
    6.2579    7.5563   21.7689 H   0  0  0  0  0  0  0  0  0  0  0  0
    7.6934    7.5100   20.7125 H   0  0  0  0  0  0  0  0  0  0  0  0
    8.9478    6.2749   22.5174 H   0  0  0  0  0  0  0  0  0  0  0  0
    7.5058    6.4552   23.5665 H   0  0  0  0  0  0  0  0  0  0  0  0
    8.1707    4.2695   21.7366 H   0  0  0  0  0  0  0  0  0  0  0  0
    6.1801    3.1891   22.5002 H   0  0  0  0  0  0  0  0  0  0  0  0
    5.7413    4.6434   23.4120 H   0  0  0  0  0  0  0  0  0  0  0  0
    8.0130    4.3858   24.6471 H   0  0  0  0  0  0  0  0  0  0  0  0
    6.8185    3.1425   25.0062 H   0  0  0  0  0  0  0  0  0  0  0  0
    9.6104    2.9481   23.3175 C   0  0  0  0  0  0  0  0  0  0  0  0
    9.9509    4.1306   23.3094 O   0  0  0  0  0  0  0  0  0  0  0  0
   10.5051    1.8763   22.7650 C   0  0  0  0  0  0  0  0  0  0  0  0
   11.8725    2.1386   22.6570 C   0  0  0  0  0  0  0  0  0  0  0  0
   12.7641    1.1699   22.2312 C   0  0  0  0  0  0  0  0  0  0  0  0
   12.2410   -0.0518   21.8191 C   0  0  0  0  0  0  0  0  0  0  0  0
   13.2992   -1.3309   21.2868 Cl  0  0  0  0  0  0  0  0  0  0  0  0
   10.8815   -0.2999   21.8364 C   0  0  0  0  0  0  0  0  0  0  0  0
    9.9874    0.6342   22.3806 C   0  0  0  0  0  0  0  0  0  0  0  0
   10.5479   -1.2282   21.3869 H   0  0  0  0  0  0  0  0  0  0  0  0
   13.8388    1.3356   22.1988 H   0  0  0  0  0  0  0  0  0  0  0  0
   12.2338    3.1112   22.9597 H   0  0  0  0  0  0  0  0  0  0  0  0
    8.3714    0.6824   24.7245 H   0  0  0  0  0  0  0  0  0  0  0  0
    6.9027    1.1065   23.8270 H   0  0  0  0  0  0  0  0  0  0  0  0
    5.9939   -1.4369   22.4858 H   0  0  0  0  0  0  0  0  0  0  0  0
    6.9430   -2.3303   21.2955 H   0  0  0  0  0  0  0  0  0  0  0  0
    8.9563   -1.6819   22.1287 H   0  0  0  0  0  0  0  0  0  0  0  0
    9.0712   -1.5446   24.6092 H   0  0  0  0  0  0  0  0  0  0  0  0
    7.3052   -1.3441   24.6732 H   0  0  0  0  0  0  0  0  0  0  0  0
    8.0001   -2.8410   24.0231 H   0  0  0  0  0  0  0  0  0  0  0  0
  1  2  1  0
  2  3  1  0
  3  4  1  0
  4  5  1  0
  5  6  2  0
  6  7  1  0
  7  8  2  0
  8  9  1  0
  9 10  2  0
 10 11  1  0
 11 12  2  0
 12 13  1  0
 13 14  2  0
 13 15  1  0
 12 16  1  0
 11 17  1  0
 10 18  1  0
  8 19  1  0
  6 20  1  0
  4 21  1  0
 21 22  2  0
 21 23  1  0
 23 24  1  1
 24 25  1  0
 25 26  1  0
 26 27  1  0
 27 28  1  0
 28 29  1  0
 29 30  1  0
 30 31  1  0
 31 32  1  0
 31 33  1  0
 30 34  1  0
 30 35  1  0
 29 36  1  0
 29 37  1  0
 28 38  1  0
 27 39  1  0
 27 40  1  0
 26 41  1  0
 26 42  1  0
 25 43  1  0
 43 44  2  0
 43 45  1  0
 45 46  2  0
 46 47  1  0
 47 48  2  0
 48 49  1  0
 48 50  1  0
 50 51  2  0
 50 52  1  0
 47 53  1  0
 46 54  1  0
 24 55  1  0
 24 56  1  0
  3 57  1  0
  3 58  1  0
  2 59  1  6
  1 60  1  0
  1 61  1  0
  1 62  1  0
 23  2  1  0
 31 28  1  0
 51 45  1  0
 14  5  1  0
 51 23  1  0
 14  9  1  0
M  CHG  1  28   1
M  END
>  <cnnaffinities>  (90) 
[6.32848]

>  <score>  (90) 
6.32848

>  <index>  (90) 
90

>  <Smiles>  (90) 
C([C@]1(C(N(c2c(nc(c3c(c(c(c(c23)[H])[H])[H])[H])[H])[H])C(=O)[C@]21C(N(C(C([N+]1(C(C(C1([H])[H])([H])[H])([H])[H])[H])([H])[H])([H])[H])C(=O)c1c(c(c(Cl)c(c21)[H])[H])[H])([H])[H])([H])[H])[H])([H])([H])[H]

>  <h>  (90) 
<NA>

>  <Training>  (90) 
True

>  <Success>  (90) 
True

>  <enamine_searched>  (90) 
False

>  <enamine_id>  (90) 
nan

$$$$

     RDKit          3D

 56 61  0  0  0  0  0  0  0  0999 V2000
    7.8885   -1.6407   24.2540 C   0  0  0  0  0  0  0  0  0  0  0  0
    8.0289   -1.2408   22.7868 C   0  0  1  0  0  0  0  0  0  0  0  0
    6.7103   -1.3663   22.0036 C   0  0  0  0  0  0  0  0  0  0  0  0
    6.8240   -0.3397   20.9947 N   0  0  0  0  0  0  0  0  0  0  0  0
    5.8908   -0.1576   19.9482 C   0  0  0  0  0  0  0  0  0  0  0  0
    6.1290   -0.7267   18.7269 C   0  0  0  0  0  0  0  0  0  0  0  0
    5.3156   -0.5924   17.6513 N   0  0  0  0  0  0  0  0  0  0  0  0
    4.2365    0.1370   17.8016 C   0  0  0  0  0  0  0  0  0  0  0  0
    3.8653    0.7765   19.0200 C   0  0  0  0  0  0  0  0  0  0  0  0
    2.6965    1.5742   19.1332 C   0  0  0  0  0  0  0  0  0  0  0  0
    2.3443    2.1254   20.3327 C   0  0  0  0  0  0  0  0  0  0  0  0
    3.1590    1.9308   21.4728 C   0  0  0  0  0  0  0  0  0  0  0  0
    4.3118    1.1884   21.3852 C   0  0  0  0  0  0  0  0  0  0  0  0
    4.7015    0.6068   20.1464 C   0  0  0  0  0  0  0  0  0  0  0  0
    4.9406    1.0470   22.2622 H   0  0  0  0  0  0  0  0  0  0  0  0
    2.8739    2.3888   22.4175 H   0  0  0  0  0  0  0  0  0  0  0  0
    1.4420    2.7263   20.4216 H   0  0  0  0  0  0  0  0  0  0  0  0
    2.1003    1.7432   18.2410 H   0  0  0  0  0  0  0  0  0  0  0  0
    3.5780    0.2402   16.9372 H   0  0  0  0  0  0  0  0  0  0  0  0
    7.0262   -1.3245   18.5804 H   0  0  0  0  0  0  0  0  0  0  0  0
    7.8154    0.5874   21.2226 C   0  0  0  0  0  0  0  0  0  0  0  0
    8.0408    1.5332   20.4994 O   0  0  0  0  0  0  0  0  0  0  0  0
    8.5608    0.2031   22.5207 C   0  0  1  0  0  0  0  0  0  0  0  0
    8.1582    1.1448   23.6948 C   0  0  0  0  0  0  0  0  0  0  0  0
    8.7267    2.4735   23.5988 N   0  0  0  0  0  0  0  0  0  0  0  0
    7.9361    3.6202   24.0521 C   0  0  0  0  0  0  0  0  0  0  0  0
    7.1836    4.2981   22.9383 C   0  0  0  0  0  0  0  0  0  0  0  0
    5.8732    4.1190   22.4457 C   0  0  0  0  0  0  0  0  0  0  0  0
    5.6539    4.8044   21.3260 N   0  0  0  0  0  0  0  0  0  0  0  0
    6.8171    5.4323   21.1082 N   0  0  0  0  0  0  0  0  0  0  0  0
    7.7505    5.1687   22.0467 C   0  0  0  0  0  0  0  0  0  0  0  0
    8.7439    5.5950   22.0046 H   0  0  0  0  0  0  0  0  0  0  0  0
    6.8808    6.0946   20.3489 H   0  0  0  0  0  0  0  0  0  0  0  0
    5.0656    3.5444   22.8871 H   0  0  0  0  0  0  0  0  0  0  0  0
    8.6374    4.3251   24.5047 H   0  0  0  0  0  0  0  0  0  0  0  0
    7.2437    3.2942   24.8327 H   0  0  0  0  0  0  0  0  0  0  0  0
    9.9942    2.7038   23.1394 C   0  0  0  0  0  0  0  0  0  0  0  0
   10.5037    3.8191   23.1690 O   0  0  0  0  0  0  0  0  0  0  0  0
   10.7309    1.5078   22.6004 C   0  0  0  0  0  0  0  0  0  0  0  0
   12.1124    1.6026   22.4226 C   0  0  0  0  0  0  0  0  0  0  0  0
   12.8439    0.5227   21.9691 C   0  0  0  0  0  0  0  0  0  0  0  0
   12.1613   -0.6402   21.6340 C   0  0  0  0  0  0  0  0  0  0  0  0
   12.8550   -1.6947   21.1742 F   0  0  0  0  0  0  0  0  0  0  0  0
   10.7954   -0.7516   21.7640 C   0  0  0  0  0  0  0  0  0  0  0  0
   10.0605    0.3090   22.3100 C   0  0  0  0  0  0  0  0  0  0  0  0
   10.3337   -1.6704   21.4180 H   0  0  0  0  0  0  0  0  0  0  0  0
   13.9183    0.5629   21.8517 H   0  0  0  0  0  0  0  0  0  0  0  0
   12.6072    2.5322   22.6832 H   0  0  0  0  0  0  0  0  0  0  0  0
    8.4732    0.6835   24.6413 H   0  0  0  0  0  0  0  0  0  0  0  0
    7.0665    1.2298   23.7037 H   0  0  0  0  0  0  0  0  0  0  0  0
    5.8351   -1.2007   22.6509 H   0  0  0  0  0  0  0  0  0  0  0  0
    6.5917   -2.3526   21.5384 H   0  0  0  0  0  0  0  0  0  0  0  0
    8.7250   -1.9426   22.3253 H   0  0  0  0  0  0  0  0  0  0  0  0
    7.5779   -2.6865   24.3508 H   0  0  0  0  0  0  0  0  0  0  0  0
    7.1336   -1.0276   24.7623 H   0  0  0  0  0  0  0  0  0  0  0  0
    8.8395   -1.5161   24.7851 H   0  0  0  0  0  0  0  0  0  0  0  0
  1  2  1  0
  2  3  1  0
  3  4  1  0
  4  5  1  0
  5  6  2  0
  6  7  1  0
  7  8  2  0
  8  9  1  0
  9 10  2  0
 10 11  1  0
 11 12  2  0
 12 13  1  0
 13 14  2  0
 13 15  1  0
 12 16  1  0
 11 17  1  0
 10 18  1  0
  8 19  1  0
  6 20  1  0
  4 21  1  0
 21 22  2  0
 21 23  1  0
 23 24  1  1
 24 25  1  0
 25 26  1  0
 26 27  1  0
 27 28  1  0
 28 29  2  0
 29 30  1  0
 30 31  1  0
 31 32  1  0
 30 33  1  0
 28 34  1  0
 26 35  1  0
 26 36  1  0
 25 37  1  0
 37 38  2  0
 37 39  1  0
 39 40  2  0
 40 41  1  0
 41 42  2  0
 42 43  1  0
 42 44  1  0
 44 45  2  0
 44 46  1  0
 41 47  1  0
 40 48  1  0
 24 49  1  0
 24 50  1  0
  3 51  1  0
  3 52  1  0
  2 53  1  6
  1 54  1  0
  1 55  1  0
  1 56  1  0
 23  2  1  0
 31 27  2  0
 45 39  1  0
 14  5  1  0
 45 23  1  0
 14  9  1  0
M  END
>  <cnnaffinities>  (91) 
[6.23666]

>  <score>  (91) 
6.23666

>  <index>  (91) 
91

>  <Smiles>  (91) 
C([C@]1(C(N(c2c(nc(c3c(c(c(c(c23)[H])[H])[H])[H])[H])[H])C(=O)[C@]21C(N(C(c1c(nn(c1[H])[H])[H])([H])[H])C(=O)c1c(c(c(F)c(c21)[H])[H])[H])([H])[H])([H])[H])[H])([H])([H])[H]

>  <h>  (91) 
<NA>

>  <Training>  (91) 
True

>  <Success>  (91) 
True

>  <enamine_searched>  (91) 
False

>  <enamine_id>  (91) 
nan

$$$$

     RDKit          3D

 47 50  0  0  0  0  0  0  0  0999 V2000
    5.9713   -2.4878   21.6719 O   0  0  0  0  0  0  0  0  0  0  0  0
    6.3913   -1.4238   22.0933 C   0  0  0  0  0  0  0  0  0  0  0  0
    6.8612   -0.3560   21.0947 C   0  0  0  0  0  0  0  0  0  0  0  0
    5.8665   -0.1704   19.9719 C   0  0  0  0  0  0  0  0  0  0  0  0
    6.0397   -0.8005   18.7665 C   0  0  0  0  0  0  0  0  0  0  0  0
    5.2310   -0.6609   17.6845 N   0  0  0  0  0  0  0  0  0  0  0  0
    4.1714    0.0964   17.8302 C   0  0  0  0  0  0  0  0  0  0  0  0
    3.8213    0.7512   19.0435 C   0  0  0  0  0  0  0  0  0  0  0  0
    2.6379    1.5194   19.1700 C   0  0  0  0  0  0  0  0  0  0  0  0
    2.3244    2.1286   20.3519 C   0  0  0  0  0  0  0  0  0  0  0  0
    3.2004    2.0167   21.4544 C   0  0  0  0  0  0  0  0  0  0  0  0
    4.3623    1.2885   21.3609 C   0  0  0  0  0  0  0  0  0  0  0  0
    4.6946    0.6239   20.1501 C   0  0  0  0  0  0  0  0  0  0  0  0
    5.0302    1.2300   22.2186 H   0  0  0  0  0  0  0  0  0  0  0  0
    2.9530    2.5264   22.3809 H   0  0  0  0  0  0  0  0  0  0  0  0
    1.4089    2.7064   20.4442 H   0  0  0  0  0  0  0  0  0  0  0  0
    1.9958    1.6312   18.3050 H   0  0  0  0  0  0  0  0  0  0  0  0
    3.5116    0.1970   16.9668 H   0  0  0  0  0  0  0  0  0  0  0  0
    6.8832   -1.4727   18.6116 H   0  0  0  0  0  0  0  0  0  0  0  0
    7.0796    0.6023   21.5755 H   0  0  0  0  0  0  0  0  0  0  0  0
    7.7931   -0.7460   20.6715 H   0  0  0  0  0  0  0  0  0  0  0  0
    6.4148   -1.1534   23.4579 N   0  0  0  0  0  0  0  0  0  0  0  0
    6.9189    0.0329   23.9749 C   0  0  0  0  0  0  0  0  0  0  0  0
    6.4050    0.8701   24.8971 C   0  0  0  0  0  0  0  0  0  0  0  0
    5.1088    0.9917   25.5890 C   0  0  0  0  0  0  0  0  0  0  0  0
    3.8730    0.5197   25.3100 C   0  0  0  0  0  0  0  0  0  0  0  0
    3.4339   -0.3912   24.2490 C   0  0  0  0  0  0  0  0  0  0  0  0
    4.1298   -1.4310   23.7654 C   0  0  0  0  0  0  0  0  0  0  0  0
    5.4407   -1.9000   24.2890 C   0  0  1  0  0  0  0  0  0  0  0  0
    5.6690   -3.4035   24.2965 C   0  0  0  0  0  0  0  0  0  0  0  0
    4.6375   -4.3324   24.4154 C   0  0  0  0  0  0  0  0  0  0  0  0
    4.9096   -5.7018   24.4238 C   0  0  0  0  0  0  0  0  0  0  0  0
    6.2223   -6.1556   24.3178 C   0  0  0  0  0  0  0  0  0  0  0  0
    7.2569   -5.2300   24.2135 C   0  0  0  0  0  0  0  0  0  0  0  0
    6.9773   -3.8693   24.2150 C   0  0  0  0  0  0  0  0  0  0  0  0
    7.7791   -3.1463   24.1080 H   0  0  0  0  0  0  0  0  0  0  0  0
    8.2890   -5.5629   24.1299 H   0  0  0  0  0  0  0  0  0  0  0  0
    6.4430   -7.2218   24.3266 H   0  0  0  0  0  0  0  0  0  0  0  0
    4.0959   -6.4184   24.5180 H   0  0  0  0  0  0  0  0  0  0  0  0
    3.6090   -3.9858   24.4934 H   0  0  0  0  0  0  0  0  0  0  0  0
    5.5930   -1.5181   25.3005 H   0  0  0  0  0  0  0  0  0  0  0  0
    3.9444   -1.8628   22.7854 H   0  0  0  0  0  0  0  0  0  0  0  0
    2.4548   -0.1673   23.8276 H   0  0  0  0  0  0  0  0  0  0  0  0
    3.0585    0.9342   25.9066 H   0  0  0  0  0  0  0  0  0  0  0  0
    5.1776    1.6424   26.4604 H   0  0  0  0  0  0  0  0  0  0  0  0
    7.1153    1.6176   25.2380 H   0  0  0  0  0  0  0  0  0  0  0  0
    7.9203    0.2266   23.6026 H   0  0  0  0  0  0  0  0  0  0  0  0
  1  2  2  0
  2  3  1  0
  3  4  1  0
  4  5  2  0
  5  6  1  0
  6  7  2  0
  7  8  1  0
  8  9  2  0
  9 10  1  0
 10 11  2  0
 11 12  1  0
 12 13  2  0
 12 14  1  0
 11 15  1  0
 10 16  1  0
  9 17  1  0
  7 18  1  0
  5 19  1  0
  3 20  1  0
  3 21  1  0
  2 22  1  0
 22 23  1  0
 23 24  2  3
 24 25  1  0
 25 26  2  3
 26 27  1  0
 27 28  2  3
 28 29  1  0
 29 30  1  0
 30 31  2  0
 31 32  1  0
 32 33  2  0
 33 34  1  0
 34 35  2  0
 35 36  1  0
 34 37  1  0
 33 38  1  0
 32 39  1  0
 31 40  1  0
 29 41  1  1
 28 42  1  0
 27 43  1  0
 26 44  1  0
 25 45  1  0
 24 46  1  0
 23 47  1  0
 13  4  1  0
 29 22  1  0
 35 30  1  0
 13  8  1  0
M  END
>  <cnnaffinities>  (92) 
[5.75666, 5.76072, 5.76105, 5.72345, 5.7246, 5.77561, 5.77569]

>  <score>  (92) 
5.75666

>  <index>  (92) 
92

>  <Smiles>  (92) 
O=C(C(c1c(nc(c2c(c(c(c(c12)[H])[H])[H])[H])[H])[H])([H])[H])N1C(=C(C(=C(C(=C([C@]1(c1c(c(c(c(c1[H])[H])[H])[H])[H])[H])[H])[H])[H])[H])[H])[H]

>  <h>  (92) 
<NA>

>  <Training>  (92) 
True

>  <Success>  (92) 
True

>  <enamine_searched>  (92) 
False

>  <enamine_id>  (92) 
nan

$$$$

     RDKit          3D

 58 62  0  0  0  0  0  0  0  0999 V2000
    5.8434    4.9721   20.8092 C   0  0  0  0  0  0  0  0  0  0  0  0
    6.5446    4.0393   21.7087 N   0  0  0  0  0  4  0  0  0  0  0  0
    7.6371    4.6917   22.4785 C   0  0  0  0  0  0  0  0  0  0  0  0
    8.1248    3.8508   23.6593 C   0  0  0  0  0  0  0  0  0  0  0  0
    8.8334    2.6394   23.2712 N   0  0  0  0  0  0  0  0  0  0  0  0
    8.2609    1.3339   23.5403 C   0  0  0  0  0  0  0  0  0  0  0  0
    8.6182    0.2897   22.4456 C   0  0  2  0  0  0  0  0  0  0  0  0
    7.7488    0.6853   21.2360 C   0  0  0  0  0  0  0  0  0  0  0  0
    7.7207    1.7855   20.6894 O   0  0  0  0  0  0  0  0  0  0  0  0
    6.8801   -0.3350   20.9542 N   0  0  0  0  0  0  0  0  0  0  0  0
    5.9131   -0.1493   19.9309 C   0  0  0  0  0  0  0  0  0  0  0  0
    6.1395   -0.7117   18.7036 C   0  0  0  0  0  0  0  0  0  0  0  0
    5.3121   -0.5665   17.6419 N   0  0  0  0  0  0  0  0  0  0  0  0
    4.2367    0.1659   17.8158 C   0  0  0  0  0  0  0  0  0  0  0  0
    3.8968    0.8231   19.0333 C   0  0  0  0  0  0  0  0  0  0  0  0
    2.7322    1.6239   19.1627 C   0  0  0  0  0  0  0  0  0  0  0  0
    2.4263    2.2293   20.3513 C   0  0  0  0  0  0  0  0  0  0  0  0
    3.2892    2.0892   21.4626 C   0  0  0  0  0  0  0  0  0  0  0  0
    4.4358    1.3370   21.3575 C   0  0  0  0  0  0  0  0  0  0  0  0
    4.7665    0.6720   20.1393 C   0  0  0  0  0  0  0  0  0  0  0  0
    5.0982    1.2494   22.2169 H   0  0  0  0  0  0  0  0  0  0  0  0
    3.0431    2.5801   22.4015 H   0  0  0  0  0  0  0  0  0  0  0  0
    1.5280    2.8321   20.4424 H   0  0  0  0  0  0  0  0  0  0  0  0
    2.1050    1.7599   18.2854 H   0  0  0  0  0  0  0  0  0  0  0  0
    3.5593    0.2674   16.9656 H   0  0  0  0  0  0  0  0  0  0  0  0
    7.0377   -1.3033   18.5342 H   0  0  0  0  0  0  0  0  0  0  0  0
    6.7147   -1.2419   22.0778 C   0  0  0  0  0  0  0  0  0  0  0  0
    8.0675   -1.1287   22.7953 C   0  0  2  0  0  0  0  0  0  0  0  0
    8.0118   -1.4689   24.2816 C   0  0  0  0  0  0  0  0  0  0  0  0
    8.9920   -1.3472   24.7549 H   0  0  0  0  0  0  0  0  0  0  0  0
    7.3042   -0.8176   24.8049 H   0  0  0  0  0  0  0  0  0  0  0  0
    7.6836   -2.4996   24.4442 H   0  0  0  0  0  0  0  0  0  0  0  0
    8.7194   -1.8512   22.3056 H   0  0  0  0  0  0  0  0  0  0  0  0
    6.4972   -2.2573   21.7316 H   0  0  0  0  0  0  0  0  0  0  0  0
    5.8907   -0.9268   22.7391 H   0  0  0  0  0  0  0  0  0  0  0  0
   10.1230    0.3351   22.1884 C   0  0  0  0  0  0  0  0  0  0  0  0
   10.8680   -0.7818   21.7679 C   0  0  0  0  0  0  0  0  0  0  0  0
   12.2379   -0.6849   21.6296 C   0  0  0  0  0  0  0  0  0  0  0  0
   12.9305   -1.7682   21.2423 F   0  0  0  0  0  0  0  0  0  0  0  0
   12.9315    0.4980   21.8514 C   0  0  0  0  0  0  0  0  0  0  0  0
   12.2048    1.6097   22.2207 C   0  0  0  0  0  0  0  0  0  0  0  0
   10.8217    1.5358   22.3988 C   0  0  0  0  0  0  0  0  0  0  0  0
   10.1197    2.7870   22.8365 C   0  0  0  0  0  0  0  0  0  0  0  0
   10.6833    3.8789   22.8061 O   0  0  0  0  0  0  0  0  0  0  0  0
   12.6934    2.5610   22.4083 H   0  0  0  0  0  0  0  0  0  0  0  0
   14.0057    0.5347   21.7144 H   0  0  0  0  0  0  0  0  0  0  0  0
   10.4187   -1.7367   21.5161 H   0  0  0  0  0  0  0  0  0  0  0  0
    7.1693    1.4288   23.5584 H   0  0  0  0  0  0  0  0  0  0  0  0
    8.5938    0.9748   24.5198 H   0  0  0  0  0  0  0  0  0  0  0  0
    7.2858    3.5705   24.3053 H   0  0  0  0  0  0  0  0  0  0  0  0
    8.8276    4.4476   24.2442 H   0  0  0  0  0  0  0  0  0  0  0  0
    8.4871    4.8768   21.8167 H   0  0  0  0  0  0  0  0  0  0  0  0
    7.2949    5.6666   22.8522 H   0  0  0  0  0  0  0  0  0  0  0  0
    6.9206    3.2334   21.1748 H   0  0  0  0  0  0  0  0  0  0  0  0
    5.8366    3.6743   22.3786 H   0  0  0  0  0  0  0  0  0  0  0  0
    5.2894    5.7137   21.3882 H   0  0  0  0  0  0  0  0  0  0  0  0
    5.1426    4.4240   20.1768 H   0  0  0  0  0  0  0  0  0  0  0  0
    6.5569    5.5155   20.1855 H   0  0  0  0  0  0  0  0  0  0  0  0
  1  2  1  0
  2  3  1  0
  3  4  1  0
  4  5  1  0
  5  6  1  0
  7  6  1  1
  7  8  1  0
  8  9  2  0
  8 10  1  0
 10 11  1  0
 11 12  2  0
 12 13  1  0
 13 14  2  0
 14 15  1  0
 15 16  2  0
 16 17  1  0
 17 18  2  0
 18 19  1  0
 19 20  2  0
 19 21  1  0
 18 22  1  0
 17 23  1  0
 16 24  1  0
 14 25  1  0
 12 26  1  0
 10 27  1  0
 27 28  1  0
 28 29  1  0
 29 30  1  0
 29 31  1  0
 29 32  1  0
 28 33  1  6
 27 34  1  0
 27 35  1  0
  7 36  1  0
 36 37  2  0
 37 38  1  0
 38 39  1  0
 38 40  2  0
 40 41  1  0
 41 42  2  0
 42 43  1  0
 43 44  2  0
 41 45  1  0
 40 46  1  0
 37 47  1  0
  6 48  1  0
  6 49  1  0
  4 50  1  0
  4 51  1  0
  3 52  1  0
  3 53  1  0
  2 54  1  0
  2 55  1  0
  1 56  1  0
  1 57  1  0
  1 58  1  0
 43  5  1  0
 28  7  1  0
 42 36  1  0
 20 11  1  0
 20 15  1  0
M  CHG  1   2   1
M  END
>  <cnnaffinities>  (93) 
[5.92199]

>  <score>  (93) 
5.92199

>  <index>  (93) 
93

>  <Smiles>  (93) 
C([N+](C(C(N1C([C@@]2(C(=O)N(c3c(nc(c4c(c(c(c(c34)[H])[H])[H])[H])[H])[H])C([C@@]2(C([H])([H])[H])[H])([H])[H])c2c(c(F)c(c(c2C1=O)[H])[H])[H])([H])[H])([H])[H])([H])[H])([H])[H])([H])([H])[H]

>  <h>  (93) 
<NA>

>  <Training>  (93) 
True

>  <Success>  (93) 
True

>  <enamine_searched>  (93) 
False

>  <enamine_id>  (93) 
nan

$$$$

     RDKit          3D

 65 69  0  0  0  0  0  0  0  0999 V2000
    9.9565   -4.1460   27.8456 C   0  0  0  0  0  0  0  0  0  0  0  0
   11.0773   -3.5940   26.9580 C   0  0  0  0  0  0  0  0  0  0  0  0
   10.7092   -2.2008   26.4944 C   0  0  0  0  0  0  0  0  0  0  0  0
   10.6257   -1.2328   27.2010 O   0  0  0  0  0  0  0  0  0  0  0  0
   10.4569   -1.9972   25.0639 N   0  0  2  0  0  4  0  0  0  0  0  0
   11.7255   -1.4537   24.3699 C   0  0  0  0  0  0  0  0  0  0  0  0
   11.3944   -1.2213   22.9204 C   0  0  0  0  0  0  0  0  0  0  0  0
   10.4035   -0.0702   22.8183 C   0  0  0  0  0  0  0  0  0  0  0  0
    9.1979   -0.2475   23.7213 C   0  0  0  0  0  0  0  0  0  0  0  0
    8.0487    0.5509   23.5765 C   0  0  0  0  0  0  0  0  0  0  0  0
    7.9713    1.4426   22.4633 N   0  0  0  0  0  0  0  0  0  0  0  0
    8.2695    2.8628   22.6750 C   0  0  0  0  0  0  0  0  0  0  0  0
    7.0188    3.7249   22.6692 C   0  0  0  0  0  0  0  0  0  0  0  0
    6.6269    4.3238   21.4752 C   0  0  0  0  0  0  0  0  0  0  0  0
    5.4332    5.0275   21.3811 C   0  0  0  0  0  0  0  0  0  0  0  0
    4.6145    5.1567   22.4980 C   0  0  0  0  0  0  0  0  0  0  0  0
    5.0342    4.6042   23.7019 C   0  0  0  0  0  0  0  0  0  0  0  0
    4.0318    4.7932   25.1166 Cl  0  0  0  0  0  0  0  0  0  0  0  0
    6.2249    3.8917   23.8010 C   0  0  0  0  0  0  0  0  0  0  0  0
    6.5153    3.4717   24.7609 H   0  0  0  0  0  0  0  0  0  0  0  0
    3.6525    5.6581   22.4437 H   0  0  0  0  0  0  0  0  0  0  0  0
    5.1276    5.4753   20.4363 H   0  0  0  0  0  0  0  0  0  0  0  0
    7.2817    4.2118   20.6217 H   0  0  0  0  0  0  0  0  0  0  0  0
    8.9431    3.2083   21.8790 H   0  0  0  0  0  0  0  0  0  0  0  0
    8.7959    2.9276   23.6332 H   0  0  0  0  0  0  0  0  0  0  0  0
    7.5509    1.0475   21.2175 C   0  0  0  0  0  0  0  0  0  0  0  0
    7.6994    1.7541   20.2359 O   0  0  0  0  0  0  0  0  0  0  0  0
    6.8634   -0.3253   21.0831 C   0  0  0  0  0  0  0  0  0  0  0  0
    5.8754   -0.2159   19.9758 C   0  0  0  0  0  0  0  0  0  0  0  0
    6.1309   -0.7513   18.7406 C   0  0  0  0  0  0  0  0  0  0  0  0
    5.3522   -0.5752   17.6437 N   0  0  0  0  0  0  0  0  0  0  0  0
    4.2843    0.1719   17.8041 C   0  0  0  0  0  0  0  0  0  0  0  0
    3.9047    0.7909   19.0286 C   0  0  0  0  0  0  0  0  0  0  0  0
    2.7523    1.6053   19.1362 C   0  0  0  0  0  0  0  0  0  0  0  0
    2.4086    2.1823   20.3267 C   0  0  0  0  0  0  0  0  0  0  0  0
    3.2281    2.0044   21.4659 C   0  0  0  0  0  0  0  0  0  0  0  0
    4.3827    1.2656   21.3758 C   0  0  0  0  0  0  0  0  0  0  0  0
    4.7328    0.6135   20.1562 C   0  0  0  0  0  0  0  0  0  0  0  0
    5.0240    1.1823   22.2520 H   0  0  0  0  0  0  0  0  0  0  0  0
    2.9361    2.4606   22.4086 H   0  0  0  0  0  0  0  0  0  0  0  0
    1.5088    2.7863   20.3974 H   0  0  0  0  0  0  0  0  0  0  0  0
    2.1559    1.7649   18.2435 H   0  0  0  0  0  0  0  0  0  0  0  0
    3.6498    0.3114   16.9308 H   0  0  0  0  0  0  0  0  0  0  0  0
    7.0275   -1.3513   18.5827 H   0  0  0  0  0  0  0  0  0  0  0  0
    7.6209   -1.0829   20.8419 H   0  0  0  0  0  0  0  0  0  0  0  0
    6.3816   -0.6169   22.0230 H   0  0  0  0  0  0  0  0  0  0  0  0
    6.9960    0.4928   24.4851 C   0  0  0  0  0  0  0  0  0  0  0  0
    7.0549   -0.3962   25.5559 C   0  0  0  0  0  0  0  0  0  0  0  0
    8.1675   -1.2112   25.7022 C   0  0  0  0  0  0  0  0  0  0  0  0
    9.2333   -1.1141   24.8054 C   0  0  0  0  0  0  0  0  0  0  0  0
    8.2337   -1.9167   26.5201 H   0  0  0  0  0  0  0  0  0  0  0  0
    6.2483   -0.4405   26.2837 H   0  0  0  0  0  0  0  0  0  0  0  0
    6.1115    1.1077   24.3221 H   0  0  0  0  0  0  0  0  0  0  0  0
   10.1027    0.0942   21.7814 H   0  0  0  0  0  0  0  0  0  0  0  0
   10.9073    0.8494   23.1430 H   0  0  0  0  0  0  0  0  0  0  0  0
   10.9853   -2.1318   22.4633 H   0  0  0  0  0  0  0  0  0  0  0  0
   12.3145   -0.9758   22.3860 H   0  0  0  0  0  0  0  0  0  0  0  0
   12.5428   -2.1631   24.5175 H   0  0  0  0  0  0  0  0  0  0  0  0
   11.9869   -0.5101   24.8608 H   0  0  0  0  0  0  0  0  0  0  0  0
   10.2499   -2.9196   24.6153 H   0  0  0  0  0  0  0  0  0  0  0  0
   12.0169   -3.5396   27.5256 H   0  0  0  0  0  0  0  0  0  0  0  0
   11.2260   -4.2330   26.0809 H   0  0  0  0  0  0  0  0  0  0  0  0
   10.1631   -5.1729   28.1496 H   0  0  0  0  0  0  0  0  0  0  0  0
    8.9813   -4.1163   27.3494 H   0  0  0  0  0  0  0  0  0  0  0  0
    9.8651   -3.5467   28.7493 H   0  0  0  0  0  0  0  0  0  0  0  0
  1  2  1  0
  2  3  1  0
  3  4  2  0
  3  5  1  0
  5  6  1  0
  6  7  1  0
  7  8  1  0
  8  9  1  0
  9 10  2  0
 10 11  1  0
 11 12  1  0
 12 13  1  0
 13 14  2  0
 14 15  1  0
 15 16  2  0
 16 17  1  0
 17 18  1  0
 17 19  2  0
 19 20  1  0
 16 21  1  0
 15 22  1  0
 14 23  1  0
 12 24  1  0
 12 25  1  0
 11 26  1  0
 26 27  2  0
 26 28  1  0
 28 29  1  0
 29 30  2  0
 30 31  1  0
 31 32  2  0
 32 33  1  0
 33 34  2  0
 34 35  1  0
 35 36  2  0
 36 37  1  0
 37 38  2  0
 37 39  1  0
 36 40  1  0
 35 41  1  0
 34 42  1  0
 32 43  1  0
 30 44  1  0
 28 45  1  0
 28 46  1  0
 10 47  1  0
 47 48  2  0
 48 49  1  0
 49 50  2  0
 49 51  1  0
 48 52  1  0
 47 53  1  0
  8 54  1  0
  8 55  1  0
  7 56  1  0
  7 57  1  0
  6 58  1  0
  6 59  1  0
  5 60  1  6
  2 61  1  0
  2 62  1  0
  1 63  1  0
  1 64  1  0
  1 65  1  0
 50  5  1  0
 50  9  1  0
 19 13  1  0
 38 29  1  0
 38 33  1  0
M  CHG  1   5   1
M  END
>  <cnnaffinities>  (94) 
[6.49098]

>  <score>  (94) 
6.49098

>  <index>  (94) 
94

>  <Smiles>  (94) 
C(C(C(=O)[N@@+]1(C(C(C(c2c(N(C(c3c(c(c(c(Cl)c3[H])[H])[H])[H])([H])[H])C(=O)C(c3c(nc(c4c(c(c(c(c34)[H])[H])[H])[H])[H])[H])([H])[H])c(c(c(c12)[H])[H])[H])([H])[H])([H])[H])([H])[H])[H])([H])[H])([H])([H])[H]

>  <h>  (94) 
<NA>

>  <Training>  (94) 
True

>  <Success>  (94) 
True

>  <enamine_searched>  (94) 
False

>  <enamine_id>  (94) 
nan

$$$$

     RDKit          3D

 67 71  0  0  0  0  0  0  0  0999 V2000
    7.0369    6.4239   22.1687 C   0  0  0  0  0  0  0  0  0  0  0  0
    7.1329    5.5199   23.2982 N   0  0  0  0  0  0  0  0  0  0  0  0
    6.6141    4.2608   23.1707 C   0  0  0  0  0  0  0  0  0  0  0  0
    5.8816    3.9245   22.2572 O   0  0  0  0  0  0  0  0  0  0  0  0
    6.9975    3.2936   24.2915 C   0  0  0  0  0  0  0  0  0  0  0  0
    8.0361    2.3758   23.8508 N   0  0  0  0  0  0  0  0  0  0  0  0
    7.8190    0.9372   23.8238 C   0  0  0  0  0  0  0  0  0  0  0  0
    8.4737    0.2768   22.5793 C   0  0  2  0  0  0  0  0  0  0  0  0
    7.7132    0.6953   21.3020 C   0  0  0  0  0  0  0  0  0  0  0  0
    7.8164    1.7151   20.6654 O   0  0  0  0  0  0  0  0  0  0  0  0
    6.8435   -0.3269   20.9787 N   0  0  0  0  0  0  0  0  0  0  0  0
    5.8878   -0.1724   19.9573 C   0  0  0  0  0  0  0  0  0  0  0  0
    6.0774   -0.7987   18.7534 C   0  0  0  0  0  0  0  0  0  0  0  0
    5.2655   -0.6557   17.6817 N   0  0  0  0  0  0  0  0  0  0  0  0
    4.2042    0.1033   17.8326 C   0  0  0  0  0  0  0  0  0  0  0  0
    3.8602    0.7612   19.0487 C   0  0  0  0  0  0  0  0  0  0  0  0
    2.6810    1.5433   19.1706 C   0  0  0  0  0  0  0  0  0  0  0  0
    2.3559    2.1339   20.3592 C   0  0  0  0  0  0  0  0  0  0  0  0
    3.2168    2.0122   21.4708 C   0  0  0  0  0  0  0  0  0  0  0  0
    4.3808    1.2895   21.3701 C   0  0  0  0  0  0  0  0  0  0  0  0
    4.7240    0.6315   20.1558 C   0  0  0  0  0  0  0  0  0  0  0  0
    5.0500    1.2425   22.2242 H   0  0  0  0  0  0  0  0  0  0  0  0
    2.9717    2.5110   22.4025 H   0  0  0  0  0  0  0  0  0  0  0  0
    1.4369    2.7043   20.4518 H   0  0  0  0  0  0  0  0  0  0  0  0
    2.0573    1.6732   18.2938 H   0  0  0  0  0  0  0  0  0  0  0  0
    3.5394    0.2079   16.9748 H   0  0  0  0  0  0  0  0  0  0  0  0
    6.9495   -1.4365   18.6174 H   0  0  0  0  0  0  0  0  0  0  0  0
    6.9465   -1.5023   21.8054 C   0  0  0  0  0  0  0  0  0  0  0  0
    8.2611   -1.2671   22.5596 C   0  0  2  0  0  0  0  0  0  0  0  0
    8.2806   -1.9614   23.9230 C   0  0  0  0  0  0  0  0  0  0  0  0
    8.5453   -3.7417   23.8399 S   0  0  0  0  0  0  0  0  0  0  0  0
    8.2674   -4.2044   22.4903 O   0  0  0  0  0  0  0  0  0  0  0  0
    7.8479   -4.3509   24.9616 O   0  0  0  0  0  0  0  0  0  0  0  0
   10.1933   -3.8710   24.0932 N   0  0  0  0  0  0  0  0  0  0  0  0
   11.0291   -3.0858   23.1864 C   0  0  0  0  0  0  0  0  0  0  0  0
   10.9899   -2.0087   23.3961 H   0  0  0  0  0  0  0  0  0  0  0  0
   10.7402   -3.2646   22.1439 H   0  0  0  0  0  0  0  0  0  0  0  0
   12.0668   -3.3923   23.3209 H   0  0  0  0  0  0  0  0  0  0  0  0
   10.6272   -3.9269   25.4855 C   0  0  0  0  0  0  0  0  0  0  0  0
   11.6360   -4.3381   25.5031 H   0  0  0  0  0  0  0  0  0  0  0  0
   10.6576   -2.9488   25.9956 H   0  0  0  0  0  0  0  0  0  0  0  0
    9.9588   -4.5974   26.0305 H   0  0  0  0  0  0  0  0  0  0  0  0
    7.3348   -1.8138   24.4592 H   0  0  0  0  0  0  0  0  0  0  0  0
    9.0689   -1.5642   24.5752 H   0  0  0  0  0  0  0  0  0  0  0  0
    9.0593   -1.6772   21.9368 H   0  0  0  0  0  0  0  0  0  0  0  0
    6.0969   -1.5989   22.4982 H   0  0  0  0  0  0  0  0  0  0  0  0
    6.9833   -2.4116   21.2052 H   0  0  0  0  0  0  0  0  0  0  0  0
    9.9168    0.7381   22.5276 C   0  0  0  0  0  0  0  0  0  0  0  0
   10.9000    0.0126   21.8517 C   0  0  0  0  0  0  0  0  0  0  0  0
   12.2135    0.4505   21.8815 C   0  0  0  0  0  0  0  0  0  0  0  0
   13.1425   -0.3129   21.2827 F   0  0  0  0  0  0  0  0  0  0  0  0
   12.6076    1.6455   22.4695 C   0  0  0  0  0  0  0  0  0  0  0  0
   11.6175    2.4061   23.0585 C   0  0  0  0  0  0  0  0  0  0  0  0
   10.2932    1.9708   23.0777 C   0  0  0  0  0  0  0  0  0  0  0  0
    9.2696    2.9040   23.6336 C   0  0  0  0  0  0  0  0  0  0  0  0
    9.5205    4.0892   23.8557 O   0  0  0  0  0  0  0  0  0  0  0  0
   11.8281    3.3749   23.4945 H   0  0  0  0  0  0  0  0  0  0  0  0
   13.6398    1.9835   22.4174 H   0  0  0  0  0  0  0  0  0  0  0  0
   10.6836   -0.8890   21.2854 H   0  0  0  0  0  0  0  0  0  0  0  0
    6.7386    0.7607   23.8123 H   0  0  0  0  0  0  0  0  0  0  0  0
    8.2456    0.4847   24.7309 H   0  0  0  0  0  0  0  0  0  0  0  0
    7.3271    3.8488   25.1757 H   0  0  0  0  0  0  0  0  0  0  0  0
    6.1234    2.6957   24.5546 H   0  0  0  0  0  0  0  0  0  0  0  0
    7.9999    5.5551   23.8163 H   0  0  0  0  0  0  0  0  0  0  0  0
    5.9898    6.6486   21.9574 H   0  0  0  0  0  0  0  0  0  0  0  0
    7.4938    5.9950   21.2705 H   0  0  0  0  0  0  0  0  0  0  0  0
    7.5500    7.3524   22.4260 H   0  0  0  0  0  0  0  0  0  0  0  0
  1  2  1  0
  2  3  1  0
  3  4  2  0
  3  5  1  0
  5  6  1  0
  6  7  1  0
  8  7  1  1
  8  9  1  0
  9 10  2  0
  9 11  1  0
 11 12  1  0
 12 13  2  0
 13 14  1  0
 14 15  2  0
 15 16  1  0
 16 17  2  0
 17 18  1  0
 18 19  2  0
 19 20  1  0
 20 21  2  0
 20 22  1  0
 19 23  1  0
 18 24  1  0
 17 25  1  0
 15 26  1  0
 13 27  1  0
 11 28  1  0
 28 29  1  0
 29 30  1  0
 30 31  1  0
 31 32  2  0
 31 33  2  0
 31 34  1  0
 34 35  1  0
 35 36  1  0
 35 37  1  0
 35 38  1  0
 34 39  1  0
 39 40  1  0
 39 41  1  0
 39 42  1  0
 30 43  1  0
 30 44  1  0
 29 45  1  6
 28 46  1  0
 28 47  1  0
  8 48  1  0
 48 49  2  0
 49 50  1  0
 50 51  1  0
 50 52  2  0
 52 53  1  0
 53 54  2  0
 54 55  1  0
 55 56  2  0
 53 57  1  0
 52 58  1  0
 49 59  1  0
  7 60  1  0
  7 61  1  0
  5 62  1  0
  5 63  1  0
  2 64  1  0
  1 65  1  0
  1 66  1  0
  1 67  1  0
 55  6  1  0
 29  8  1  0
 54 48  1  0
 21 12  1  0
 21 16  1  0
M  END
>  <cnnaffinities>  (95) 
[6.57156, 6.68201, 6.28938, 5.92436, 6.26318, 6.35627, 6.35384]

>  <score>  (95) 
6.57156

>  <index>  (95) 
95

>  <Smiles>  (95) 
C(N(C(=O)C(N1C([C@@]2(C(=O)N(c3c(nc(c4c(c(c(c(c34)[H])[H])[H])[H])[H])[H])C([C@@]2(C(S(=O)(=O)N(C([H])([H])[H])C([H])([H])[H])([H])[H])[H])([H])[H])c2c(c(F)c(c(c2C1=O)[H])[H])[H])([H])[H])([H])[H])[H])([H])([H])[H]

>  <h>  (95) 
<NA>

>  <Training>  (95) 
True

>  <Success>  (95) 
True

>  <enamine_searched>  (95) 
False

>  <enamine_id>  (95) 
nan

$$$$

     RDKit          3D

 37 39  0  0  0  0  0  0  0  0999 V2000
    8.5018    1.2404   20.2959 O   0  0  0  0  0  0  0  0  0  0  0  0
    7.7826    0.8840   21.2132 C   0  0  0  0  0  0  0  0  0  0  0  0
    6.8787   -0.3479   21.1164 C   0  0  0  0  0  0  0  0  0  0  0  0
    5.8654   -0.1788   20.0103 C   0  0  0  0  0  0  0  0  0  0  0  0
    6.0835   -0.7563   18.7888 C   0  0  0  0  0  0  0  0  0  0  0  0
    5.2851   -0.6225   17.6978 N   0  0  0  0  0  0  0  0  0  0  0  0
    4.2078    0.1141   17.8331 C   0  0  0  0  0  0  0  0  0  0  0  0
    3.8429    0.7702   19.0430 C   0  0  0  0  0  0  0  0  0  0  0  0
    2.6769    1.5718   19.1516 C   0  0  0  0  0  0  0  0  0  0  0  0
    2.3489    2.1739   20.3351 C   0  0  0  0  0  0  0  0  0  0  0  0
    3.2071    2.0476   21.4492 C   0  0  0  0  0  0  0  0  0  0  0  0
    4.3582    1.3043   21.3639 C   0  0  0  0  0  0  0  0  0  0  0  0
    4.6987    0.6282   20.1623 C   0  0  0  0  0  0  0  0  0  0  0  0
    5.0261    1.2492   22.2184 H   0  0  0  0  0  0  0  0  0  0  0  0
    2.9544    2.5541   22.3751 H   0  0  0  0  0  0  0  0  0  0  0  0
    1.4392    2.7633   20.4242 H   0  0  0  0  0  0  0  0  0  0  0  0
    2.0597    1.7188   18.2717 H   0  0  0  0  0  0  0  0  0  0  0  0
    3.5554    0.2127   16.9615 H   0  0  0  0  0  0  0  0  0  0  0  0
    6.9591   -1.3911   18.6464 H   0  0  0  0  0  0  0  0  0  0  0  0
    6.4007   -0.5689   22.0834 H   0  0  0  0  0  0  0  0  0  0  0  0
    7.5362   -1.1910   20.8675 H   0  0  0  0  0  0  0  0  0  0  0  0
    7.7117    1.5856   22.3818 N   0  0  0  0  0  0  0  0  0  0  0  0
    8.5063    2.7978   22.5209 C   0  0  0  0  0  0  0  0  0  0  0  0
   10.0043    2.5462   22.5779 C   0  0  0  0  0  0  0  0  0  0  0  0
   10.8539    3.1521   21.6507 C   0  0  0  0  0  0  0  0  0  0  0  0
   12.2236    2.9090   21.6853 C   0  0  0  0  0  0  0  0  0  0  0  0
   12.7583    2.0147   22.5971 C   0  0  0  0  0  0  0  0  0  0  0  0
   11.9161    1.4258   23.5313 C   0  0  0  0  0  0  0  0  0  0  0  0
   12.5816    0.3268   24.7077 Cl  0  0  0  0  0  0  0  0  0  0  0  0
   10.5522    1.6942   23.5377 C   0  0  0  0  0  0  0  0  0  0  0  0
    9.9295    1.2030   24.2812 H   0  0  0  0  0  0  0  0  0  0  0  0
   13.8159    1.7672   22.5865 H   0  0  0  0  0  0  0  0  0  0  0  0
   12.9150    3.4006   21.0085 H   0  0  0  0  0  0  0  0  0  0  0  0
   10.4189    3.7723   20.8665 H   0  0  0  0  0  0  0  0  0  0  0  0
    8.2994    3.4557   21.6707 H   0  0  0  0  0  0  0  0  0  0  0  0
    8.1715    3.3209   23.4221 H   0  0  0  0  0  0  0  0  0  0  0  0
    7.2396    1.2073   23.1867 H   0  0  0  0  0  0  0  0  0  0  0  0
  1  2  2  0
  2  3  1  0
  3  4  1  0
  4  5  2  0
  5  6  1  0
  6  7  2  0
  7  8  1  0
  8  9  2  0
  9 10  1  0
 10 11  2  0
 11 12  1  0
 12 13  2  0
 12 14  1  0
 11 15  1  0
 10 16  1  0
  9 17  1  0
  7 18  1  0
  5 19  1  0
  3 20  1  0
  3 21  1  0
  2 22  1  0
 22 23  1  0
 23 24  1  0
 24 25  2  0
 25 26  1  0
 26 27  2  0
 27 28  1  0
 28 29  1  0
 28 30  2  0
 30 31  1  0
 27 32  1  0
 26 33  1  0
 25 34  1  0
 23 35  1  0
 23 36  1  0
 22 37  1  0
 13  4  1  0
 30 24  1  0
 13  8  1  0
M  END
>  <cnnaffinities>  (96) 
[5.07293]

>  <score>  (96) 
5.07293

>  <index>  (96) 
96

>  <Smiles>  (96) 
O=C(C(c1c(nc(c2c(c(c(c(c12)[H])[H])[H])[H])[H])[H])([H])[H])N(C(c1c(c(c(c(Cl)c1[H])[H])[H])[H])([H])[H])[H]

>  <h>  (96) 
<NA>

>  <Training>  (96) 
True

>  <Success>  (96) 
True

>  <enamine_searched>  (96) 
False

>  <enamine_id>  (96) 
nan

$$$$
