
     RDKit          3D

 66 71  0  0  0  0  0  0  0  0999 V2000
   -7.3715    3.4620  -21.8563 C   0  0  0  0  0  0  0  0  0  0  0  0
   -8.3365    3.0168  -22.8499 N   0  0  0  0  0  0  0  0  0  0  0  0
   -7.8601    2.2318  -23.8622 C   0  0  0  0  0  0  0  0  0  0  0  0
   -6.6746    1.9695  -23.9986 O   0  0  0  0  0  0  0  0  0  0  0  0
   -8.9041    1.6750  -24.8289 C   0  0  0  0  0  0  0  0  0  0  0  0
   -9.5694    0.5329  -24.2435 N   0  0  0  0  0  0  0  0  0  0  0  0
   -8.8321   -0.7118  -24.1297 C   0  0  0  0  0  0  0  0  0  0  0  0
   -9.1750   -1.4644  -22.8218 C   0  0  2  0  0  0  0  0  0  0  0  0
   -8.5774   -0.7029  -21.6147 C   0  0  0  0  0  0  0  0  0  0  0  0
   -9.0035    0.3152  -21.1140 O   0  0  0  0  0  0  0  0  0  0  0  0
   -7.4458   -1.3685  -21.1969 N   0  0  0  0  0  0  0  0  0  0  0  0
   -6.6230   -0.8203  -20.1780 C   0  0  0  0  0  0  0  0  0  0  0  0
   -6.9383   -1.0478  -18.8629 C   0  0  0  0  0  0  0  0  0  0  0  0
   -6.2423   -0.5618  -17.8051 N   0  0  0  0  0  0  0  0  0  0  0  0
   -5.2001    0.1902  -18.0771 C   0  0  0  0  0  0  0  0  0  0  0  0
   -4.7654    0.5190  -19.3934 C   0  0  0  0  0  0  0  0  0  0  0  0
   -3.6405    1.3548  -19.6314 C   0  0  0  0  0  0  0  0  0  0  0  0
   -3.2570    1.6594  -20.9078 C   0  0  0  0  0  0  0  0  0  0  0  0
   -3.9776    1.1484  -22.0111 C   0  0  0  0  0  0  0  0  0  0  0  0
   -5.0713    0.3388  -21.8097 C   0  0  0  0  0  0  0  0  0  0  0  0
   -5.4928   -0.0019  -20.4937 C   0  0  0  0  0  0  0  0  0  0  0  0
   -5.6280   -0.0226  -22.6713 H   0  0  0  0  0  0  0  0  0  0  0  0
   -3.6726    1.4002  -23.0222 H   0  0  0  0  0  0  0  0  0  0  0  0
   -2.3970    2.2986  -21.0820 H   0  0  0  0  0  0  0  0  0  0  0  0
   -3.1022    1.7501  -18.7729 H   0  0  0  0  0  0  0  0  0  0  0  0
   -4.6289    0.5808  -17.2338 H   0  0  0  0  0  0  0  0  0  0  0  0
   -7.8078   -1.6565  -18.6266 H   0  0  0  0  0  0  0  0  0  0  0  0
   -7.1463   -2.5627  -21.9640 C   0  0  0  0  0  0  0  0  0  0  0  0
   -8.4485   -2.8376  -22.7360 C   0  0  2  0  0  0  0  0  0  0  0  0
   -8.1913   -3.6007  -24.0384 C   0  0  0  0  0  0  0  0  0  0  0  0
   -9.4191   -3.9302  -24.7268 N   0  0  0  0  0  0  0  0  0  0  0  0
   -9.4254   -4.5736  -25.9244 C   0  0  0  0  0  0  0  0  0  0  0  0
  -10.6293   -4.9178  -26.5637 C   0  0  0  0  0  0  0  0  0  0  0  0
  -10.5299   -5.5292  -27.7890 C   0  0  0  0  0  0  0  0  0  0  0  0
   -9.3625   -5.8108  -28.3944 N   0  0  0  0  0  0  0  0  0  0  0  0
   -8.2951   -5.4627  -27.6897 C   0  0  0  0  0  0  0  0  0  0  0  0
   -8.2472   -4.8600  -26.4986 N   0  0  0  0  0  0  0  0  0  0  0  0
   -7.3283   -5.6965  -28.1400 H   0  0  0  0  0  0  0  0  0  0  0  0
  -11.4261   -5.8196  -28.3308 H   0  0  0  0  0  0  0  0  0  0  0  0
  -11.5914   -4.7111  -26.1065 H   0  0  0  0  0  0  0  0  0  0  0  0
  -10.2976   -3.7673  -24.2601 H   0  0  0  0  0  0  0  0  0  0  0  0
   -7.5532   -3.0163  -24.7149 H   0  0  0  0  0  0  0  0  0  0  0  0
   -7.6408   -4.5257  -23.8256 H   0  0  0  0  0  0  0  0  0  0  0  0
   -9.0649   -3.4903  -22.1128 H   0  0  0  0  0  0  0  0  0  0  0  0
   -6.8797   -3.3915  -21.2997 H   0  0  0  0  0  0  0  0  0  0  0  0
   -6.3055   -2.3958  -22.6569 H   0  0  0  0  0  0  0  0  0  0  0  0
  -10.6848   -1.5283  -22.6984 C   0  0  0  0  0  0  0  0  0  0  0  0
  -11.2974   -2.4772  -21.8741 C   0  0  0  0  0  0  0  0  0  0  0  0
  -12.6696   -2.4659  -21.7099 C   0  0  0  0  0  0  0  0  0  0  0  0
  -13.3931   -3.6098  -20.6231 Cl  0  0  0  0  0  0  0  0  0  0  0  0
  -13.4846   -1.5278  -22.3419 C   0  0  0  0  0  0  0  0  0  0  0  0
  -12.8841   -0.5722  -23.1336 C   0  0  0  0  0  0  0  0  0  0  0  0
  -11.5014   -0.5548  -23.2895 C   0  0  0  0  0  0  0  0  0  0  0  0
  -10.9097    0.6052  -24.0147 C   0  0  0  0  0  0  0  0  0  0  0  0
  -11.5850    1.5716  -24.3521 O   0  0  0  0  0  0  0  0  0  0  0  0
  -13.4584    0.2036  -23.6261 H   0  0  0  0  0  0  0  0  0  0  0  0
  -14.5550   -1.5310  -22.1647 H   0  0  0  0  0  0  0  0  0  0  0  0
  -10.7197   -3.1970  -21.3029 H   0  0  0  0  0  0  0  0  0  0  0  0
   -7.7601   -0.4905  -24.1708 H   0  0  0  0  0  0  0  0  0  0  0  0
   -9.0764   -1.3636  -24.9770 H   0  0  0  0  0  0  0  0  0  0  0  0
   -9.6804    2.4108  -25.0649 H   0  0  0  0  0  0  0  0  0  0  0  0
   -8.3818    1.3710  -25.7425 H   0  0  0  0  0  0  0  0  0  0  0  0
   -9.2949    2.8979  -22.5327 H   0  0  0  0  0  0  0  0  0  0  0  0
   -7.8813    3.9473  -21.0169 H   0  0  0  0  0  0  0  0  0  0  0  0
   -6.7738    2.6024  -21.5175 H   0  0  0  0  0  0  0  0  0  0  0  0
   -6.6850    4.1852  -22.3061 H   0  0  0  0  0  0  0  0  0  0  0  0
  1  2  1  0
  2  3  1  0
  3  4  2  0
  3  5  1  0
  5  6  1  0
  6  7  1  0
  8  7  1  6
  8  9  1  0
  9 10  2  0
  9 11  1  0
 11 12  1  0
 12 13  2  0
 13 14  1  0
 14 15  2  0
 15 16  1  0
 16 17  2  0
 17 18  1  0
 18 19  2  0
 19 20  1  0
 20 21  2  0
 20 22  1  0
 19 23  1  0
 18 24  1  0
 17 25  1  0
 15 26  1  0
 13 27  1  0
 11 28  1  0
 28 29  1  0
 29 30  1  0
 30 31  1  0
 31 32  1  0
 32 33  2  0
 33 34  1  0
 34 35  2  0
 35 36  1  0
 36 37  2  0
 36 38  1  0
 34 39  1  0
 33 40  1  0
 31 41  1  0
 30 42  1  0
 30 43  1  0
 29 44  1  1
 28 45  1  0
 28 46  1  0
  8 47  1  0
 47 48  2  0
 48 49  1  0
 49 50  1  0
 49 51  2  0
 51 52  1  0
 52 53  2  0
 53 54  1  0
 54 55  2  0
 52 56  1  0
 51 57  1  0
 48 58  1  0
  7 59  1  0
  7 60  1  0
  5 61  1  0
  5 62  1  0
  2 63  1  0
  1 64  1  0
  1 65  1  0
  1 66  1  0
 54  6  1  0
 29  8  1  0
 37 32  1  0
 53 47  1  0
 21 12  1  0
 21 16  1  0
M  END
>  <cnnaffinities>  (1) 
[6.62184, 7.01194]

>  <score>  (1) 
6.62184

>  <index>  (1) 
0

>  <Smiles>  (1) 
C(N(C(=O)C(N1C([C@@]2(C(=O)N(c3c(nc(c4c(c(c(c(c34)[H])[H])[H])[H])[H])[H])C([C@@]2(C(N(c2c(c(nc(n2)[H])[H])[H])[H])([H])[H])[H])([H])[H])c2c(c(Cl)c(c(c2C1=O)[H])[H])[H])([H])[H])([H])[H])[H])([H])([H])[H]

>  <h>  (1) 
<NA>

>  <Training>  (1) 
True

>  <Success>  (1) 
True

>  <enamine_searched>  (1) 
False

>  <enamine_id>  (1) 
nan

$$$$

     RDKit          3D

 68 73  0  0  0  0  0  0  0  0999 V2000
   -7.2541    3.4798  -21.9565 C   0  0  0  0  0  0  0  0  0  0  0  0
   -8.0627    2.9683  -23.0495 N   0  0  0  0  0  0  0  0  0  0  0  0
   -7.4636    2.2514  -24.0321 C   0  0  0  0  0  0  0  0  0  0  0  0
   -6.2479    2.1326  -24.1115 O   0  0  0  0  0  0  0  0  0  0  0  0
   -8.3993    1.6053  -25.0647 C   0  0  0  0  0  0  0  0  0  0  0  0
   -9.1877    0.5075  -24.5337 N   0  0  0  0  0  0  0  0  0  0  0  0
   -8.5441   -0.7755  -24.3163 C   0  0  0  0  0  0  0  0  0  0  0  0
   -9.0100   -1.4337  -22.9913 C   0  0  2  0  0  0  0  0  0  0  0  0
   -8.4412   -0.6409  -21.7824 C   0  0  0  0  0  0  0  0  0  0  0  0
   -8.8020    0.4421  -21.3772 O   0  0  0  0  0  0  0  0  0  0  0  0
   -7.4218   -1.3696  -21.2074 N   0  0  0  0  0  0  0  0  0  0  0  0
   -6.6112   -0.8055  -20.1791 C   0  0  0  0  0  0  0  0  0  0  0  0
   -6.9099   -1.0431  -18.8617 C   0  0  0  0  0  0  0  0  0  0  0  0
   -6.2079   -0.5523  -17.8081 N   0  0  0  0  0  0  0  0  0  0  0  0
   -5.1700    0.2072  -18.0745 C   0  0  0  0  0  0  0  0  0  0  0  0
   -4.7348    0.5319  -19.3908 C   0  0  0  0  0  0  0  0  0  0  0  0
   -3.6035    1.3605  -19.6355 C   0  0  0  0  0  0  0  0  0  0  0  0
   -3.2093    1.6436  -20.9163 C   0  0  0  0  0  0  0  0  0  0  0  0
   -3.9262    1.1086  -22.0106 C   0  0  0  0  0  0  0  0  0  0  0  0
   -5.0241    0.3081  -21.7982 C   0  0  0  0  0  0  0  0  0  0  0  0
   -5.4694    0.0059  -20.4827 C   0  0  0  0  0  0  0  0  0  0  0  0
   -5.5686   -0.0918  -22.6483 H   0  0  0  0  0  0  0  0  0  0  0  0
   -3.6306    1.3474  -23.0267 H   0  0  0  0  0  0  0  0  0  0  0  0
   -2.3538    2.2894  -21.0978 H   0  0  0  0  0  0  0  0  0  0  0  0
   -3.0705    1.7737  -18.7831 H   0  0  0  0  0  0  0  0  0  0  0  0
   -4.6209    0.6114  -17.2234 H   0  0  0  0  0  0  0  0  0  0  0  0
   -7.7586   -1.6709  -18.6017 H   0  0  0  0  0  0  0  0  0  0  0  0
   -7.1394   -2.6217  -21.8826 C   0  0  0  0  0  0  0  0  0  0  0  0
   -8.3717   -2.8461  -22.7838 C   0  0  2  0  0  0  0  0  0  0  0  0
   -8.0095   -3.6644  -24.0360 C   0  0  0  0  0  0  0  0  0  0  0  0
   -9.1700   -3.9778  -24.8280 N   0  0  0  0  0  0  0  0  0  0  0  0
   -9.0484   -4.6375  -26.0442 C   0  0  0  0  0  0  0  0  0  0  0  0
  -10.0933   -4.9775  -26.9517 C   0  0  0  0  0  0  0  0  0  0  0  0
   -9.6157   -5.5942  -28.0291 N   0  0  0  0  0  0  0  0  0  0  0  0
   -8.2985   -5.6762  -27.8410 N   0  0  0  0  0  0  0  0  0  0  0  0
   -7.4326   -6.2520  -28.8480 C   0  0  0  0  0  0  0  0  0  0  0  0
   -6.6466   -6.8234  -28.3444 H   0  0  0  0  0  0  0  0  0  0  0  0
   -6.9718   -5.4714  -29.4662 H   0  0  0  0  0  0  0  0  0  0  0  0
   -8.0350   -6.9130  -29.4757 H   0  0  0  0  0  0  0  0  0  0  0  0
   -7.9061   -5.1120  -26.6645 C   0  0  0  0  0  0  0  0  0  0  0  0
   -6.8552   -5.1075  -26.3858 H   0  0  0  0  0  0  0  0  0  0  0  0
  -11.1654   -4.8081  -26.8873 H   0  0  0  0  0  0  0  0  0  0  0  0
  -10.0911   -3.6863  -24.5318 H   0  0  0  0  0  0  0  0  0  0  0  0
   -7.5076   -4.6010  -23.7368 H   0  0  0  0  0  0  0  0  0  0  0  0
   -7.2716   -3.1124  -24.6464 H   0  0  0  0  0  0  0  0  0  0  0  0
   -9.1030   -3.4339  -22.2194 H   0  0  0  0  0  0  0  0  0  0  0  0
   -7.0011   -3.4289  -21.1532 H   0  0  0  0  0  0  0  0  0  0  0  0
   -6.2130   -2.5581  -22.4783 H   0  0  0  0  0  0  0  0  0  0  0  0
  -10.5301   -1.3880  -22.9384 C   0  0  0  0  0  0  0  0  0  0  0  0
  -11.2258   -2.1845  -22.0182 C   0  0  0  0  0  0  0  0  0  0  0  0
  -12.6061   -2.1228  -21.9508 C   0  0  0  0  0  0  0  0  0  0  0  0
  -13.4570   -3.1135  -20.7988 Cl  0  0  0  0  0  0  0  0  0  0  0  0
  -13.3335   -1.2518  -22.7602 C   0  0  0  0  0  0  0  0  0  0  0  0
  -12.6475   -0.4034  -23.6080 C   0  0  0  0  0  0  0  0  0  0  0  0
  -11.2539   -0.4364  -23.6741 C   0  0  0  0  0  0  0  0  0  0  0  0
  -10.5483    0.6444  -24.4443 C   0  0  0  0  0  0  0  0  0  0  0  0
  -11.1407    1.6036  -24.9156 O   0  0  0  0  0  0  0  0  0  0  0  0
  -13.1685    0.3272  -24.2146 H   0  0  0  0  0  0  0  0  0  0  0  0
  -14.4143   -1.2209  -22.6812 H   0  0  0  0  0  0  0  0  0  0  0  0
  -10.7013   -2.8106  -21.3042 H   0  0  0  0  0  0  0  0  0  0  0  0
   -7.4669   -0.5896  -24.2648 H   0  0  0  0  0  0  0  0  0  0  0  0
   -8.7471   -1.4555  -25.1588 H   0  0  0  0  0  0  0  0  0  0  0  0
   -9.1255    2.3175  -25.4709 H   0  0  0  0  0  0  0  0  0  0  0  0
   -7.7458    1.2606  -25.8724 H   0  0  0  0  0  0  0  0  0  0  0  0
   -9.0706    2.9384  -22.9572 H   0  0  0  0  0  0  0  0  0  0  0  0
   -6.6832    2.6635  -21.4797 H   0  0  0  0  0  0  0  0  0  0  0  0
   -6.5360    4.2260  -22.3236 H   0  0  0  0  0  0  0  0  0  0  0  0
   -7.9270    3.9559  -21.2388 H   0  0  0  0  0  0  0  0  0  0  0  0
  1  2  1  0
  2  3  1  0
  3  4  2  0
  3  5  1  0
  5  6  1  0
  6  7  1  0
  8  7  1  6
  8  9  1  0
  9 10  2  0
  9 11  1  0
 11 12  1  0
 12 13  2  0
 13 14  1  0
 14 15  2  0
 15 16  1  0
 16 17  2  0
 17 18  1  0
 18 19  2  0
 19 20  1  0
 20 21  2  0
 20 22  1  0
 19 23  1  0
 18 24  1  0
 17 25  1  0
 15 26  1  0
 13 27  1  0
 11 28  1  0
 28 29  1  0
 29 30  1  0
 30 31  1  0
 31 32  1  0
 32 33  1  0
 33 34  2  0
 34 35  1  0
 35 36  1  0
 36 37  1  0
 36 38  1  0
 36 39  1  0
 35 40  1  0
 40 41  1  0
 33 42  1  0
 31 43  1  0
 30 44  1  0
 30 45  1  0
 29 46  1  1
 28 47  1  0
 28 48  1  0
  8 49  1  0
 49 50  2  0
 50 51  1  0
 51 52  1  0
 51 53  2  0
 53 54  1  0
 54 55  2  0
 55 56  1  0
 56 57  2  0
 54 58  1  0
 53 59  1  0
 50 60  1  0
  7 61  1  0
  7 62  1  0
  5 63  1  0
  5 64  1  0
  2 65  1  0
  1 66  1  0
  1 67  1  0
  1 68  1  0
 56  6  1  0
 29  8  1  0
 40 32  2  0
 55 49  1  0
 21 12  1  0
 21 16  1  0
M  END
>  <cnnaffinities>  (2) 
[7.02557, 6.70479, 7.24609, 7.03709, 7.00214]

>  <score>  (2) 
7.02557

>  <index>  (2) 
1

>  <Smiles>  (2) 
C(N(C(=O)C(N1C([C@@]2(C(=O)N(c3c(nc(c4c(c(c(c(c34)[H])[H])[H])[H])[H])[H])C([C@@]2(C(N(c2c(nn(C([H])([H])[H])c2[H])[H])[H])([H])[H])[H])([H])[H])c2c(c(Cl)c(c(c2C1=O)[H])[H])[H])([H])[H])([H])[H])[H])([H])([H])[H]

>  <h>  (2) 
<NA>

>  <Training>  (2) 
True

>  <Success>  (2) 
True

>  <enamine_searched>  (2) 
False

>  <enamine_id>  (2) 
nan

$$$$

     RDKit          3D

 60 65  0  0  0  0  0  0  0  0999 V2000
   -5.9245   -7.5576  -26.6568 C   0  0  0  0  0  0  0  0  0  0  0  0
   -6.3854   -6.1301  -26.7442 C   0  0  0  0  0  0  0  0  0  0  0  0
   -5.5558   -5.0664  -26.3911 C   0  0  0  0  0  0  0  0  0  0  0  0
   -5.9427   -3.7896  -26.4268 N   0  0  0  0  0  0  0  0  0  0  0  0
   -7.1942   -3.5574  -26.8250 C   0  0  0  0  0  0  0  0  0  0  0  0
   -7.6967   -2.1286  -26.8324 C   0  0  0  0  0  0  0  0  0  0  0  0
   -8.5664   -1.8010  -25.6907 N   0  0  0  0  0  0  0  0  0  0  0  0
   -7.9399   -1.2355  -24.4992 C   0  0  0  0  0  0  0  0  0  0  0  0
   -8.7185   -1.5329  -23.1881 C   0  0  2  0  0  0  0  0  0  0  0  0
   -8.1358   -0.6185  -22.1042 C   0  0  0  0  0  0  0  0  0  0  0  0
   -8.2528    0.5899  -22.0392 O   0  0  0  0  0  0  0  0  0  0  0  0
   -7.4184   -1.3766  -21.2063 N   0  0  0  0  0  0  0  0  0  0  0  0
   -6.6095   -0.8015  -20.1850 C   0  0  0  0  0  0  0  0  0  0  0  0
   -6.8907   -1.0537  -18.8674 C   0  0  0  0  0  0  0  0  0  0  0  0
   -6.2002   -0.5515  -17.8103 N   0  0  0  0  0  0  0  0  0  0  0  0
   -5.1669    0.2147  -18.0731 C   0  0  0  0  0  0  0  0  0  0  0  0
   -4.7297    0.5289  -19.3907 C   0  0  0  0  0  0  0  0  0  0  0  0
   -3.5949    1.3536  -19.6299 C   0  0  0  0  0  0  0  0  0  0  0  0
   -3.1879    1.6204  -20.9079 C   0  0  0  0  0  0  0  0  0  0  0  0
   -3.8884    1.0689  -22.0046 C   0  0  0  0  0  0  0  0  0  0  0  0
   -4.9844    0.2727  -21.7984 C   0  0  0  0  0  0  0  0  0  0  0  0
   -5.4549   -0.0028  -20.4858 C   0  0  0  0  0  0  0  0  0  0  0  0
   -5.5144   -0.1488  -22.6465 H   0  0  0  0  0  0  0  0  0  0  0  0
   -3.5612    1.2834  -23.0172 H   0  0  0  0  0  0  0  0  0  0  0  0
   -2.3268    2.2578  -21.0939 H   0  0  0  0  0  0  0  0  0  0  0  0
   -3.0605    1.7707  -18.7785 H   0  0  0  0  0  0  0  0  0  0  0  0
   -4.6133    0.6208  -17.2229 H   0  0  0  0  0  0  0  0  0  0  0  0
   -7.7410   -1.6805  -18.6040 H   0  0  0  0  0  0  0  0  0  0  0  0
   -7.3854   -2.7885  -21.5418 C   0  0  0  0  0  0  0  0  0  0  0  0
   -8.4994   -2.9624  -22.5818 C   0  0  2  0  0  0  0  0  0  0  0  0
   -8.2379   -4.1006  -23.5637 C   0  0  0  0  0  0  0  0  0  0  0  0
   -7.2826   -3.9685  -24.0803 H   0  0  0  0  0  0  0  0  0  0  0  0
   -8.2033   -5.0609  -23.0377 H   0  0  0  0  0  0  0  0  0  0  0  0
   -9.0227   -4.1558  -24.3268 H   0  0  0  0  0  0  0  0  0  0  0  0
   -9.4291   -3.1928  -22.0406 H   0  0  0  0  0  0  0  0  0  0  0  0
   -6.4095   -3.0919  -21.9468 H   0  0  0  0  0  0  0  0  0  0  0  0
   -7.5587   -3.3856  -20.6498 H   0  0  0  0  0  0  0  0  0  0  0  0
  -10.1923   -1.2725  -23.4181 C   0  0  0  0  0  0  0  0  0  0  0  0
  -11.0354   -0.9511  -22.3542 C   0  0  0  0  0  0  0  0  0  0  0  0
  -12.3821   -0.7912  -22.6005 C   0  0  0  0  0  0  0  0  0  0  0  0
  -13.2220   -0.4898  -21.6146 F   0  0  0  0  0  0  0  0  0  0  0  0
  -12.9506   -0.9299  -23.8515 C   0  0  0  0  0  0  0  0  0  0  0  0
  -12.1267   -1.3009  -24.8888 C   0  0  0  0  0  0  0  0  0  0  0  0
  -10.7630   -1.5337  -24.6628 C   0  0  0  0  0  0  0  0  0  0  0  0
   -9.8970   -2.1209  -25.7384 C   0  0  0  0  0  0  0  0  0  0  0  0
  -10.3758   -2.8297  -26.6132 O   0  0  0  0  0  0  0  0  0  0  0  0
  -12.5830   -1.4301  -25.8650 H   0  0  0  0  0  0  0  0  0  0  0  0
  -14.0258   -0.7990  -23.9284 H   0  0  0  0  0  0  0  0  0  0  0  0
  -10.6311   -0.8584  -21.3565 H   0  0  0  0  0  0  0  0  0  0  0  0
   -7.8457   -0.1403  -24.5855 H   0  0  0  0  0  0  0  0  0  0  0  0
   -6.9279   -1.6538  -24.4302 H   0  0  0  0  0  0  0  0  0  0  0  0
   -6.8211   -1.4706  -26.8151 H   0  0  0  0  0  0  0  0  0  0  0  0
   -8.2393   -1.9273  -27.7638 H   0  0  0  0  0  0  0  0  0  0  0  0
   -8.0125   -4.6193  -27.2074 C   0  0  0  0  0  0  0  0  0  0  0  0
   -7.6278   -5.8941  -27.1706 N   0  0  0  0  0  0  0  0  0  0  0  0
   -9.0227   -4.4203  -27.5415 H   0  0  0  0  0  0  0  0  0  0  0  0
   -4.5408   -5.2626  -26.0592 H   0  0  0  0  0  0  0  0  0  0  0  0
   -6.6681   -8.2079  -27.1170 H   0  0  0  0  0  0  0  0  0  0  0  0
   -5.7876   -7.8651  -25.6140 H   0  0  0  0  0  0  0  0  0  0  0  0
   -4.9646   -7.6973  -27.1639 H   0  0  0  0  0  0  0  0  0  0  0  0
  1  2  1  0
  2  3  2  0
  3  4  1  0
  4  5  2  0
  5  6  1  0
  6  7  1  0
  7  8  1  0
  9  8  1  6
  9 10  1  0
 10 11  2  0
 10 12  1  0
 12 13  1  0
 13 14  2  0
 14 15  1  0
 15 16  2  0
 16 17  1  0
 17 18  2  0
 18 19  1  0
 19 20  2  0
 20 21  1  0
 21 22  2  0
 21 23  1  0
 20 24  1  0
 19 25  1  0
 18 26  1  0
 16 27  1  0
 14 28  1  0
 12 29  1  0
 29 30  1  0
 30 31  1  0
 31 32  1  0
 31 33  1  0
 31 34  1  0
 30 35  1  1
 29 36  1  0
 29 37  1  0
  9 38  1  0
 38 39  2  0
 39 40  1  0
 40 41  1  0
 40 42  2  0
 42 43  1  0
 43 44  2  0
 44 45  1  0
 45 46  2  0
 43 47  1  0
 42 48  1  0
 39 49  1  0
  8 50  1  0
  8 51  1  0
  6 52  1  0
  6 53  1  0
  5 54  1  0
 54 55  2  0
 54 56  1  0
  3 57  1  0
  1 58  1  0
  1 59  1  0
  1 60  1  0
 55  2  1  0
 45  7  1  0
 30  9  1  0
 44 38  1  0
 22 13  1  0
 22 17  1  0
M  END
>  <cnnaffinities>  (3) 
[6.48946]

>  <score>  (3) 
6.48946

>  <index>  (3) 
2

>  <Smiles>  (3) 
C(c1c(nc(C(N2C([C@@]3(C(=O)N(c4c(nc(c5c(c(c(c(c45)[H])[H])[H])[H])[H])[H])C([C@@]3(C([H])([H])[H])[H])([H])[H])c3c(c(F)c(c(c3C2=O)[H])[H])[H])([H])[H])([H])[H])c(n1)[H])[H])([H])([H])[H]

>  <h>  (3) 
<NA>

>  <Training>  (3) 
True

>  <Success>  (3) 
True

>  <enamine_searched>  (3) 
False

>  <enamine_id>  (3) 
nan

$$$$

     RDKit          3D

 66 70  0  0  0  0  0  0  0  0999 V2000
   -7.4067    3.4745  -21.8342 C   0  0  0  0  0  0  0  0  0  0  0  0
   -8.3832    3.0086  -22.8039 N   0  0  0  0  0  0  0  0  0  0  0  0
   -7.9048    2.2478  -23.8314 C   0  0  0  0  0  0  0  0  0  0  0  0
   -6.7133    2.0157  -23.9792 O   0  0  0  0  0  0  0  0  0  0  0  0
   -8.9488    1.6901  -24.7973 C   0  0  0  0  0  0  0  0  0  0  0  0
   -9.5717    0.5038  -24.2479 N   0  0  0  0  0  0  0  0  0  0  0  0
   -8.7866   -0.7124  -24.1180 C   0  0  0  0  0  0  0  0  0  0  0  0
   -9.1211   -1.4964  -22.8226 C   0  0  2  0  0  0  0  0  0  0  0  0
   -8.5741   -0.7411  -21.5920 C   0  0  0  0  0  0  0  0  0  0  0  0
   -9.0456    0.2480  -21.0655 O   0  0  0  0  0  0  0  0  0  0  0  0
   -7.4246   -1.3717  -21.1771 N   0  0  0  0  0  0  0  0  0  0  0  0
   -6.6139   -0.8077  -20.1621 C   0  0  0  0  0  0  0  0  0  0  0  0
   -6.9281   -1.0402  -18.8500 C   0  0  0  0  0  0  0  0  0  0  0  0
   -6.2312   -0.5521  -17.7941 N   0  0  0  0  0  0  0  0  0  0  0  0
   -5.1897    0.1993  -18.0684 C   0  0  0  0  0  0  0  0  0  0  0  0
   -4.7536    0.5242  -19.3850 C   0  0  0  0  0  0  0  0  0  0  0  0
   -3.6283    1.3572  -19.6289 C   0  0  0  0  0  0  0  0  0  0  0  0
   -3.2474    1.6594  -20.9059 C   0  0  0  0  0  0  0  0  0  0  0  0
   -3.9723    1.1485  -22.0072 C   0  0  0  0  0  0  0  0  0  0  0  0
   -5.0664    0.3425  -21.8023 C   0  0  0  0  0  0  0  0  0  0  0  0
   -5.4830    0.0049  -20.4838 C   0  0  0  0  0  0  0  0  0  0  0  0
   -5.6274   -0.0166  -22.6622 H   0  0  0  0  0  0  0  0  0  0  0  0
   -3.6693    1.3988  -23.0192 H   0  0  0  0  0  0  0  0  0  0  0  0
   -2.3889    2.3004  -21.0841 H   0  0  0  0  0  0  0  0  0  0  0  0
   -3.0886    1.7544  -18.7729 H   0  0  0  0  0  0  0  0  0  0  0  0
   -4.6217    0.5927  -17.2234 H   0  0  0  0  0  0  0  0  0  0  0  0
   -7.7937   -1.6545  -18.6131 H   0  0  0  0  0  0  0  0  0  0  0  0
   -7.0666   -2.5392  -21.9575 C   0  0  0  0  0  0  0  0  0  0  0  0
   -8.3432   -2.8438  -22.7548 C   0  0  2  0  0  0  0  0  0  0  0  0
   -8.0405   -3.5469  -24.0808 C   0  0  0  0  0  0  0  0  0  0  0  0
   -9.2088   -3.8196  -24.8252 O   0  0  0  0  0  0  0  0  0  0  0  0
   -9.7996   -5.1013  -24.6027 C   0  0  0  0  0  0  0  0  0  0  0  0
  -11.2908   -4.9092  -24.8110 C   0  0  0  0  0  0  0  0  0  0  0  0
  -11.8390   -5.8513  -24.7049 H   0  0  0  0  0  0  0  0  0  0  0  0
  -11.6844   -4.1863  -24.0919 H   0  0  0  0  0  0  0  0  0  0  0  0
  -11.4588   -4.5191  -25.8179 H   0  0  0  0  0  0  0  0  0  0  0  0
   -9.2100   -6.1420  -25.5566 C   0  0  0  0  0  0  0  0  0  0  0  0
   -9.6782   -7.1218  -25.3962 H   0  0  0  0  0  0  0  0  0  0  0  0
   -8.1292   -6.2555  -25.4099 H   0  0  0  0  0  0  0  0  0  0  0  0
   -9.3859   -5.8379  -26.5945 H   0  0  0  0  0  0  0  0  0  0  0  0
   -9.6050   -5.4234  -23.5646 H   0  0  0  0  0  0  0  0  0  0  0  0
   -7.4656   -4.4694  -23.8947 H   0  0  0  0  0  0  0  0  0  0  0  0
   -7.4196   -2.8980  -24.7099 H   0  0  0  0  0  0  0  0  0  0  0  0
   -8.9598   -3.5237  -22.1646 H   0  0  0  0  0  0  0  0  0  0  0  0
   -6.2162   -2.3309  -22.6259 H   0  0  0  0  0  0  0  0  0  0  0  0
   -6.7772   -3.3633  -21.2981 H   0  0  0  0  0  0  0  0  0  0  0  0
  -10.6282   -1.6158  -22.7288 C   0  0  0  0  0  0  0  0  0  0  0  0
  -11.2208   -2.5585  -21.8819 C   0  0  0  0  0  0  0  0  0  0  0  0
  -12.5964   -2.5872  -21.7418 C   0  0  0  0  0  0  0  0  0  0  0  0
  -13.3208   -3.6424  -20.5687 Cl  0  0  0  0  0  0  0  0  0  0  0  0
  -13.4350   -1.7437  -22.4712 C   0  0  0  0  0  0  0  0  0  0  0  0
  -12.8543   -0.7870  -23.2733 C   0  0  0  0  0  0  0  0  0  0  0  0
  -11.4697   -0.6880  -23.3551 C   0  0  0  0  0  0  0  0  0  0  0  0
  -10.9158    0.5199  -24.0310 C   0  0  0  0  0  0  0  0  0  0  0  0
  -11.6229    1.4722  -24.3403 O   0  0  0  0  0  0  0  0  0  0  0  0
  -13.4447   -0.0599  -23.8177 H   0  0  0  0  0  0  0  0  0  0  0  0
  -14.5104   -1.8147  -22.3525 H   0  0  0  0  0  0  0  0  0  0  0  0
  -10.6163   -3.2427  -21.2953 H   0  0  0  0  0  0  0  0  0  0  0  0
   -8.9834   -1.3770  -24.9667 H   0  0  0  0  0  0  0  0  0  0  0  0
   -7.7254   -0.4440  -24.1312 H   0  0  0  0  0  0  0  0  0  0  0  0
   -9.7570    2.4019  -24.9999 H   0  0  0  0  0  0  0  0  0  0  0  0
   -8.4325    1.4460  -25.7311 H   0  0  0  0  0  0  0  0  0  0  0  0
   -9.3270    2.8532  -22.4680 H   0  0  0  0  0  0  0  0  0  0  0  0
   -6.7941    2.6232  -21.5022 H   0  0  0  0  0  0  0  0  0  0  0  0
   -6.7326    4.1930  -22.3046 H   0  0  0  0  0  0  0  0  0  0  0  0
   -7.8978    3.9848  -20.9993 H   0  0  0  0  0  0  0  0  0  0  0  0
  1  2  1  0
  2  3  1  0
  3  4  2  0
  3  5  1  0
  5  6  1  0
  6  7  1  0
  8  7  1  6
  8  9  1  0
  9 10  2  0
  9 11  1  0
 11 12  1  0
 12 13  2  0
 13 14  1  0
 14 15  2  0
 15 16  1  0
 16 17  2  0
 17 18  1  0
 18 19  2  0
 19 20  1  0
 20 21  2  0
 20 22  1  0
 19 23  1  0
 18 24  1  0
 17 25  1  0
 15 26  1  0
 13 27  1  0
 11 28  1  0
 28 29  1  0
 29 30  1  0
 30 31  1  0
 31 32  1  0
 32 33  1  0
 33 34  1  0
 33 35  1  0
 33 36  1  0
 32 37  1  0
 37 38  1  0
 37 39  1  0
 37 40  1  0
 32 41  1  0
 30 42  1  0
 30 43  1  0
 29 44  1  1
 28 45  1  0
 28 46  1  0
  8 47  1  0
 47 48  2  0
 48 49  1  0
 49 50  1  0
 49 51  2  0
 51 52  1  0
 52 53  2  0
 53 54  1  0
 54 55  2  0
 52 56  1  0
 51 57  1  0
 48 58  1  0
  7 59  1  0
  7 60  1  0
  5 61  1  0
  5 62  1  0
  2 63  1  0
  1 64  1  0
  1 65  1  0
  1 66  1  0
 54  6  1  0
 29  8  1  0
 53 47  1  0
 21 12  1  0
 21 16  1  0
M  END
>  <cnnaffinities>  (4) 
[6.62912, 6.99013, 6.41658, 6.65481, 6.67821]

>  <score>  (4) 
6.62912

>  <index>  (4) 
3

>  <Smiles>  (4) 
C(N(C(=O)C(N1C([C@@]2(C(=O)N(c3c(nc(c4c(c(c(c(c34)[H])[H])[H])[H])[H])[H])C([C@@]2(C(OC(C([H])([H])[H])(C([H])([H])[H])[H])([H])[H])[H])([H])[H])c2c(c(Cl)c(c(c2C1=O)[H])[H])[H])([H])[H])([H])[H])[H])([H])([H])[H]

>  <h>  (4) 
<NA>

>  <Training>  (4) 
True

>  <Success>  (4) 
True

>  <enamine_searched>  (4) 
False

>  <enamine_id>  (4) 
nan

$$$$

     RDKit          3D

 59 64  0  0  0  0  0  0  0  0999 V2000
   -8.3503   -4.0267  -23.7128 C   0  0  0  0  0  0  0  0  0  0  0  0
   -8.5404   -3.1248  -22.4940 C   0  0  1  0  0  0  0  0  0  0  0  0
   -7.1986   -2.5350  -22.0296 C   0  0  0  0  0  0  0  0  0  0  0  0
   -7.5864   -1.3921  -21.2327 N   0  0  0  0  0  0  0  0  0  0  0  0
   -6.7898   -0.8376  -20.1974 C   0  0  0  0  0  0  0  0  0  0  0  0
   -7.0937   -1.0853  -18.8804 C   0  0  0  0  0  0  0  0  0  0  0  0
   -6.3772   -0.6240  -17.8226 N   0  0  0  0  0  0  0  0  0  0  0  0
   -5.3232    0.1136  -18.0849 C   0  0  0  0  0  0  0  0  0  0  0  0
   -4.8834    0.4401  -19.3997 C   0  0  0  0  0  0  0  0  0  0  0  0
   -3.7414    1.2552  -19.6323 C   0  0  0  0  0  0  0  0  0  0  0  0
   -3.3365    1.5312  -20.9088 C   0  0  0  0  0  0  0  0  0  0  0  0
   -4.0471    1.0009  -22.0094 C   0  0  0  0  0  0  0  0  0  0  0  0
   -5.1629    0.2241  -21.8105 C   0  0  0  0  0  0  0  0  0  0  0  0
   -5.6196   -0.0676  -20.4976 C   0  0  0  0  0  0  0  0  0  0  0  0
   -5.7205   -0.1404  -22.6662 H   0  0  0  0  0  0  0  0  0  0  0  0
   -3.7292    1.2451  -23.0207 H   0  0  0  0  0  0  0  0  0  0  0  0
   -2.4766    2.1696  -21.0898 H   0  0  0  0  0  0  0  0  0  0  0  0
   -3.1965    1.6489  -18.7773 H   0  0  0  0  0  0  0  0  0  0  0  0
   -4.7499    0.4901  -17.2350 H   0  0  0  0  0  0  0  0  0  0  0  0
   -7.9576   -1.6992  -18.6351 H   0  0  0  0  0  0  0  0  0  0  0  0
   -8.8619   -0.9446  -21.5173 C   0  0  0  0  0  0  0  0  0  0  0  0
   -9.3826    0.0061  -20.9817 O   0  0  0  0  0  0  0  0  0  0  0  0
   -9.4656   -1.8747  -22.6267 C   0  0  1  0  0  0  0  0  0  0  0  0
   -9.2989   -1.1902  -24.0101 C   0  0  0  0  0  0  0  0  0  0  0  0
  -10.1161    0.0085  -24.1197 N   0  0  0  0  0  0  0  0  0  0  0  0
   -9.5748    1.1863  -24.7799 C   0  0  0  0  0  0  0  0  0  0  0  0
   -8.5371    1.8887  -23.9469 C   0  0  0  0  0  0  0  0  0  0  0  0
   -8.8576    2.5199  -22.8396 N   0  0  0  0  0  0  0  0  0  0  0  0
   -7.6870    3.0783  -22.3917 C   0  0  0  0  0  0  0  0  0  0  0  0
   -6.6539    2.7724  -23.2334 C   0  0  0  0  0  0  0  0  0  0  0  0
   -7.2047    2.0006  -24.2329 N   0  0  0  0  0  0  0  0  0  0  0  0
   -6.5392    1.5221  -25.4275 C   0  0  0  0  0  0  0  0  0  0  0  0
   -5.4746    1.7680  -25.3840 H   0  0  0  0  0  0  0  0  0  0  0  0
   -6.6495    0.4356  -25.5182 H   0  0  0  0  0  0  0  0  0  0  0  0
   -6.9580    2.0128  -26.3131 H   0  0  0  0  0  0  0  0  0  0  0  0
   -5.5898    2.9418  -23.1592 H   0  0  0  0  0  0  0  0  0  0  0  0
   -7.6697    3.6938  -21.5047 H   0  0  0  0  0  0  0  0  0  0  0  0
   -9.2114    0.9227  -25.7807 H   0  0  0  0  0  0  0  0  0  0  0  0
  -10.4239    1.8651  -24.9110 H   0  0  0  0  0  0  0  0  0  0  0  0
  -11.4404   -0.0109  -23.7847 C   0  0  0  0  0  0  0  0  0  0  0  0
  -12.2310    0.8593  -24.1304 O   0  0  0  0  0  0  0  0  0  0  0  0
  -11.8775   -1.1676  -22.9422 C   0  0  0  0  0  0  0  0  0  0  0  0
  -13.2356   -1.2229  -22.6329 C   0  0  0  0  0  0  0  0  0  0  0  0
  -13.7332   -2.1938  -21.7899 C   0  0  0  0  0  0  0  0  0  0  0  0
  -12.8254   -3.1066  -21.2702 C   0  0  0  0  0  0  0  0  0  0  0  0
  -13.2826   -4.0005  -20.3770 F   0  0  0  0  0  0  0  0  0  0  0  0
  -11.4776   -3.0954  -21.5876 C   0  0  0  0  0  0  0  0  0  0  0  0
  -10.9603   -2.0950  -22.4187 C   0  0  0  0  0  0  0  0  0  0  0  0
  -10.8352   -3.8363  -21.1248 H   0  0  0  0  0  0  0  0  0  0  0  0
  -14.7803   -2.2787  -21.5184 H   0  0  0  0  0  0  0  0  0  0  0  0
  -13.8710   -0.4547  -23.0572 H   0  0  0  0  0  0  0  0  0  0  0  0
   -9.5727   -1.9211  -24.7875 H   0  0  0  0  0  0  0  0  0  0  0  0
   -8.2579   -0.8968  -24.1626 H   0  0  0  0  0  0  0  0  0  0  0  0
   -6.5974   -3.2325  -21.4419 H   0  0  0  0  0  0  0  0  0  0  0  0
   -6.5999   -2.2352  -22.9060 H   0  0  0  0  0  0  0  0  0  0  0  0
   -8.9412   -3.7246  -21.6690 H   0  0  0  0  0  0  0  0  0  0  0  0
   -7.9307   -3.4686  -24.5577 H   0  0  0  0  0  0  0  0  0  0  0  0
   -9.2778   -4.4985  -24.0504 H   0  0  0  0  0  0  0  0  0  0  0  0
   -7.6392   -4.8267  -23.4793 H   0  0  0  0  0  0  0  0  0  0  0  0
  1  2  1  0
  2  3  1  0
  3  4  1  0
  4  5  1  0
  5  6  2  0
  6  7  1  0
  7  8  2  0
  8  9  1  0
  9 10  2  0
 10 11  1  0
 11 12  2  0
 12 13  1  0
 13 14  2  0
 13 15  1  0
 12 16  1  0
 11 17  1  0
 10 18  1  0
  8 19  1  0
  6 20  1  0
  4 21  1  0
 21 22  2  0
 21 23  1  0
 23 24  1  6
 24 25  1  0
 25 26  1  0
 26 27  1  0
 27 28  2  0
 28 29  1  0
 29 30  2  0
 30 31  1  0
 31 32  1  0
 32 33  1  0
 32 34  1  0
 32 35  1  0
 30 36  1  0
 29 37  1  0
 26 38  1  0
 26 39  1  0
 25 40  1  0
 40 41  2  0
 40 42  1  0
 42 43  2  0
 43 44  1  0
 44 45  2  0
 45 46  1  0
 45 47  1  0
 47 48  2  0
 47 49  1  0
 44 50  1  0
 43 51  1  0
 24 52  1  0
 24 53  1  0
  3 54  1  0
  3 55  1  0
  2 56  1  1
  1 57  1  0
  1 58  1  0
  1 59  1  0
 23  2  1  0
 31 27  1  0
 48 42  1  0
 14  5  1  0
 48 23  1  0
 14  9  1  0
M  END
>  <cnnaffinities>  (5) 
[6.82469, 6.15079, 6.52194, 6.52607, 6.47387]

>  <score>  (5) 
6.82469

>  <index>  (5) 
4

>  <Smiles>  (5) 
C([C@]1(C(N(c2c(nc(c3c(c(c(c(c23)[H])[H])[H])[H])[H])[H])C(=O)[C@]21C(N(C(c1nc(c(n1C([H])([H])[H])[H])[H])([H])[H])C(=O)c1c(c(c(F)c(c21)[H])[H])[H])([H])[H])([H])[H])[H])([H])([H])[H]

>  <h>  (5) 
<NA>

>  <Training>  (5) 
True

>  <Success>  (5) 
True

>  <enamine_searched>  (5) 
False

>  <enamine_id>  (5) 
nan

$$$$

     RDKit          3D

 58 61  0  0  0  0  0  0  0  0999 V2000
   -7.4111   -4.0793  -23.5377 C   0  0  0  0  0  0  0  0  0  0  0  0
   -6.9196   -3.3772  -22.5174 C   0  0  0  0  0  0  0  0  0  0  0  0
   -7.6116   -2.8257  -21.3000 C   0  0  0  0  0  0  0  0  0  0  0  0
   -7.3851   -1.3772  -21.2357 N   0  0  0  0  0  0  0  0  0  0  0  0
   -8.1743   -0.4396  -21.8983 C   0  0  0  0  0  0  0  0  0  0  0  0
   -8.2554    0.7003  -21.4822 O   0  0  0  0  0  0  0  0  0  0  0  0
   -8.8947   -0.9029  -23.1757 C   0  0  2  0  0  0  0  0  0  0  0  0
   -8.0404   -0.6951  -24.4473 C   0  0  0  0  0  0  0  0  0  0  0  0
   -7.9512    0.7186  -24.8075 N   0  0  0  0  0  0  0  0  0  0  0  0
   -6.7024    1.2700  -25.3116 C   0  0  0  0  0  0  0  0  0  0  0  0
   -6.5992    1.3285  -26.8416 C   0  0  0  0  0  0  0  0  0  0  0  0
   -6.6557    2.3753  -27.4661 O   0  0  0  0  0  0  0  0  0  0  0  0
   -6.4255    0.1336  -27.4661 N   0  0  0  0  0  0  0  0  0  0  0  0
   -6.3832    0.0939  -28.9152 C   0  0  0  0  0  0  0  0  0  0  0  0
   -5.5837    0.7386  -29.2924 H   0  0  0  0  0  0  0  0  0  0  0  0
   -7.3311    0.4464  -29.3353 H   0  0  0  0  0  0  0  0  0  0  0  0
   -6.2060   -0.9296  -29.2506 H   0  0  0  0  0  0  0  0  0  0  0  0
   -6.3010   -0.7206  -26.9432 H   0  0  0  0  0  0  0  0  0  0  0  0
   -6.6122    2.2917  -24.9410 H   0  0  0  0  0  0  0  0  0  0  0  0
   -5.8743    0.6705  -24.9071 H   0  0  0  0  0  0  0  0  0  0  0  0
   -9.0334    1.5626  -24.7431 C   0  0  0  0  0  0  0  0  0  0  0  0
   -9.0133    2.6958  -25.1956 O   0  0  0  0  0  0  0  0  0  0  0  0
  -10.2501    1.0135  -24.0688 C   0  0  0  0  0  0  0  0  0  0  0  0
  -11.4393    1.7327  -24.1693 C   0  0  0  0  0  0  0  0  0  0  0  0
  -12.6041    1.2369  -23.6155 C   0  0  0  0  0  0  0  0  0  0  0  0
  -12.5603    0.0072  -22.9564 C   0  0  0  0  0  0  0  0  0  0  0  0
  -14.0392   -0.7013  -22.3831 Cl  0  0  0  0  0  0  0  0  0  0  0  0
  -11.3666   -0.6753  -22.7849 C   0  0  0  0  0  0  0  0  0  0  0  0
  -10.1961   -0.1738  -23.3492 C   0  0  0  0  0  0  0  0  0  0  0  0
  -11.3403   -1.5960  -22.2065 H   0  0  0  0  0  0  0  0  0  0  0  0
  -13.5373    1.7877  -23.6868 H   0  0  0  0  0  0  0  0  0  0  0  0
  -11.4190    2.6733  -24.7076 H   0  0  0  0  0  0  0  0  0  0  0  0
   -8.5056   -1.2608  -25.2688 H   0  0  0  0  0  0  0  0  0  0  0  0
   -7.0321   -1.1046  -24.3082 H   0  0  0  0  0  0  0  0  0  0  0  0
   -9.1136   -1.9704  -23.0879 H   0  0  0  0  0  0  0  0  0  0  0  0
   -6.5649   -0.8609  -20.1989 C   0  0  0  0  0  0  0  0  0  0  0  0
   -6.9099   -1.0724  -18.8884 C   0  0  0  0  0  0  0  0  0  0  0  0
   -6.2558   -0.5615  -17.8218 N   0  0  0  0  0  0  0  0  0  0  0  0
   -5.2072    0.1885  -18.0898 C   0  0  0  0  0  0  0  0  0  0  0  0
   -4.7356    0.4830  -19.4011 C   0  0  0  0  0  0  0  0  0  0  0  0
   -3.6230    1.3322  -19.6358 C   0  0  0  0  0  0  0  0  0  0  0  0
   -3.2195    1.6184  -20.9126 C   0  0  0  0  0  0  0  0  0  0  0  0
   -3.8952    1.0569  -22.0174 C   0  0  0  0  0  0  0  0  0  0  0  0
   -4.9562    0.2092  -21.8223 C   0  0  0  0  0  0  0  0  0  0  0  0
   -5.4226   -0.0654  -20.5041 C   0  0  0  0  0  0  0  0  0  0  0  0
   -5.4080   -0.3027  -22.6750 H   0  0  0  0  0  0  0  0  0  0  0  0
   -3.5670    1.2994  -23.0261 H   0  0  0  0  0  0  0  0  0  0  0  0
   -2.3718    2.2749  -21.0826 H   0  0  0  0  0  0  0  0  0  0  0  0
   -3.1153    1.7633  -18.7770 H   0  0  0  0  0  0  0  0  0  0  0  0
   -4.6775    0.6105  -17.2374 H   0  0  0  0  0  0  0  0  0  0  0  0
   -7.7892   -1.6814  -18.6769 H   0  0  0  0  0  0  0  0  0  0  0  0
   -8.6904   -3.0478  -21.2730 H   0  0  0  0  0  0  0  0  0  0  0  0
   -7.1120   -3.2450  -20.4211 H   0  0  0  0  0  0  0  0  0  0  0  0
   -5.4809   -2.8556  -22.4955 C   0  0  0  0  0  0  0  0  0  0  0  0
   -5.0992   -2.3076  -23.5560 O   0  0  0  0  0  0  0  0  0  0  0  0
   -4.8840   -2.9789  -21.4109 O   0  0  0  0  0  1  0  0  0  0  0  0
   -8.4472   -4.4176  -23.6160 H   0  0  0  0  0  0  0  0  0  0  0  0
   -6.7393   -4.3613  -24.3423 H   0  0  0  0  0  0  0  0  0  0  0  0
  1  2  2  0
  2  3  1  0
  3  4  1  0
  4  5  1  0
  5  6  2  0
  5  7  1  0
  7  8  1  0
  8  9  1  0
  9 10  1  0
 10 11  1  0
 11 12  2  0
 11 13  1  0
 13 14  1  0
 14 15  1  0
 14 16  1  0
 14 17  1  0
 13 18  1  0
 10 19  1  0
 10 20  1  0
  9 21  1  0
 21 22  2  0
 21 23  1  0
 23 24  2  0
 24 25  1  0
 25 26  2  0
 26 27  1  0
 26 28  1  0
 28 29  2  0
 28 30  1  0
 25 31  1  0
 24 32  1  0
  8 33  1  0
  8 34  1  0
  7 35  1  1
  4 36  1  0
 36 37  2  0
 37 38  1  0
 38 39  2  0
 39 40  1  0
 40 41  2  0
 41 42  1  0
 42 43  2  0
 43 44  1  0
 44 45  2  0
 44 46  1  0
 43 47  1  0
 42 48  1  0
 41 49  1  0
 39 50  1  0
 37 51  1  0
  3 52  1  0
  3 53  1  0
  2 54  1  0
 54 55  2  0
 54 56  1  0
  1 57  1  0
  1 58  1  0
 29  7  1  0
 45 36  1  0
 29 23  1  0
 45 40  1  0
M  CHG  1  56  -1
M  END
>  <cnnaffinities>  (6) 
[5.77933, 6.07149, 5.99143]

>  <score>  (6) 
5.77933

>  <index>  (6) 
5

>  <Smiles>  (6) 
C(=C(C(N(C(=O)[C@@]1(C(N(C(C(=O)N(C([H])([H])[H])[H])([H])[H])C(=O)c2c(c(c(Cl)c(c12)[H])[H])[H])([H])[H])[H])c1c(nc(c2c(c(c(c(c12)[H])[H])[H])[H])[H])[H])([H])[H])C(=O)[O-])([H])[H]

>  <h>  (6) 
<NA>

>  <Training>  (6) 
True

>  <Success>  (6) 
True

>  <enamine_searched>  (6) 
False

>  <enamine_id>  (6) 
nan

$$$$

     RDKit          3D

 43 45  0  0  0  0  0  0  0  0999 V2000
   -6.6428    0.8187  -28.1893 C   0  0  0  0  0  0  0  0  0  0  0  0
   -6.4667    1.4952  -26.8306 C   0  0  0  0  0  0  0  0  0  0  0  0
   -7.4791    1.0496  -25.7707 C   0  0  0  0  0  0  0  0  0  0  0  0
   -7.4107    1.9388  -24.5318 C   0  0  0  0  0  0  0  0  0  0  0  0
   -8.3969    1.5004  -23.4522 C   0  0  0  0  0  0  0  0  0  0  0  0
   -8.1797    0.0961  -23.1259 N   0  0  0  0  0  0  0  0  0  0  0  0
   -8.3785   -0.3126  -21.8034 C   0  0  0  0  0  0  0  0  0  0  0  0
   -9.1795    0.2211  -21.0677 O   0  0  0  0  0  0  0  0  0  0  0  0
   -7.4430   -1.4113  -21.2716 C   0  0  0  0  0  0  0  0  0  0  0  0
   -6.5705   -0.8344  -20.1738 C   0  0  0  0  0  0  0  0  0  0  0  0
   -6.8771   -1.0415  -18.8546 C   0  0  0  0  0  0  0  0  0  0  0  0
   -6.1960   -0.5354  -17.7899 N   0  0  0  0  0  0  0  0  0  0  0  0
   -5.1579    0.2201  -18.0621 C   0  0  0  0  0  0  0  0  0  0  0  0
   -4.7239    0.5340  -19.3781 C   0  0  0  0  0  0  0  0  0  0  0  0
   -3.6027    1.3686  -19.6215 C   0  0  0  0  0  0  0  0  0  0  0  0
   -3.2132    1.6629  -20.9002 C   0  0  0  0  0  0  0  0  0  0  0  0
   -3.9321    1.1292  -21.9941 C   0  0  0  0  0  0  0  0  0  0  0  0
   -5.0193    0.3167  -21.7848 C   0  0  0  0  0  0  0  0  0  0  0  0
   -5.4497   -0.0021  -20.4702 C   0  0  0  0  0  0  0  0  0  0  0  0
   -5.5523   -0.0875  -22.6385 H   0  0  0  0  0  0  0  0  0  0  0  0
   -3.6166    1.3670  -23.0064 H   0  0  0  0  0  0  0  0  0  0  0  0
   -2.3592    2.3106  -21.0842 H   0  0  0  0  0  0  0  0  0  0  0  0
   -3.0633    1.7801  -18.7713 H   0  0  0  0  0  0  0  0  0  0  0  0
   -4.6029    0.6266  -17.2145 H   0  0  0  0  0  0  0  0  0  0  0  0
   -7.7295   -1.6619  -18.5832 H   0  0  0  0  0  0  0  0  0  0  0  0
   -6.8342   -1.8461  -22.0744 H   0  0  0  0  0  0  0  0  0  0  0  0
   -8.0683   -2.2050  -20.8453 H   0  0  0  0  0  0  0  0  0  0  0  0
   -8.2712   -0.8125  -24.2631 C   0  0  0  0  0  0  0  0  0  0  0  0
   -7.3000   -0.4105  -25.3639 C   0  0  0  0  0  0  0  0  0  0  0  0
   -7.4290   -1.0726  -26.2261 H   0  0  0  0  0  0  0  0  0  0  0  0
   -6.2764   -0.5630  -25.0036 H   0  0  0  0  0  0  0  0  0  0  0  0
   -8.0710   -1.8247  -23.9153 H   0  0  0  0  0  0  0  0  0  0  0  0
   -9.2931   -0.8260  -24.6815 H   0  0  0  0  0  0  0  0  0  0  0  0
   -9.4287    1.6967  -23.7839 H   0  0  0  0  0  0  0  0  0  0  0  0
   -8.2494    2.0775  -22.5388 H   0  0  0  0  0  0  0  0  0  0  0  0
   -6.3921    1.9138  -24.1212 H   0  0  0  0  0  0  0  0  0  0  0  0
   -7.6003    2.9819  -24.8083 H   0  0  0  0  0  0  0  0  0  0  0  0
   -8.4848    1.1612  -26.2037 H   0  0  0  0  0  0  0  0  0  0  0  0
   -6.5418    2.5823  -26.9584 H   0  0  0  0  0  0  0  0  0  0  0  0
   -5.4526    1.3102  -26.4546 H   0  0  0  0  0  0  0  0  0  0  0  0
   -7.6727    0.9251  -28.5487 H   0  0  0  0  0  0  0  0  0  0  0  0
   -6.4227   -0.2534  -28.1458 H   0  0  0  0  0  0  0  0  0  0  0  0
   -5.9833    1.2596  -28.9450 H   0  0  0  0  0  0  0  0  0  0  0  0
  1  2  1  0
  2  3  1  0
  3  4  1  0
  4  5  1  0
  5  6  1  0
  6  7  1  0
  7  8  2  0
  7  9  1  0
  9 10  1  0
 10 11  2  0
 11 12  1  0
 12 13  2  0
 13 14  1  0
 14 15  2  0
 15 16  1  0
 16 17  2  0
 17 18  1  0
 18 19  2  0
 18 20  1  0
 17 21  1  0
 16 22  1  0
 15 23  1  0
 13 24  1  0
 11 25  1  0
  9 26  1  0
  9 27  1  0
  6 28  1  0
 28 29  1  0
 29 30  1  0
 29 31  1  0
 28 32  1  0
 28 33  1  0
  5 34  1  0
  5 35  1  0
  4 36  1  0
  4 37  1  0
  3 38  1  0
  2 39  1  0
  2 40  1  0
  1 41  1  0
  1 42  1  0
  1 43  1  0
 29  3  1  0
 19 10  1  0
 19 14  1  0
M  END
>  <cnnaffinities>  (7) 
[4.94394, 4.93016, 4.76273, 4.76303, 5.10165, 5.10175, 4.7091, 4.74538, 5.02215, 5.02211, 5.13282, 5.13511, 5.13306, 4.91719, 4.9172, 5.12784, 4.95749, 5.13662, 5.1366, 4.69826, 4.69828, 4.92884, 4.75065, 4.95425, 4.96067, 4.82533, 4.82545]

>  <score>  (7) 
4.94394

>  <index>  (7) 
6

>  <Smiles>  (7) 
C(C(C1(C(C(N(C(=O)C(c2c(nc(c3c(c(c(c(c23)[H])[H])[H])[H])[H])[H])([H])[H])C(C1([H])[H])([H])[H])([H])[H])([H])[H])[H])([H])[H])([H])([H])[H]

>  <h>  (7) 
<NA>

>  <Training>  (7) 
True

>  <Success>  (7) 
True

>  <enamine_searched>  (7) 
False

>  <enamine_id>  (7) 
nan

$$$$

     RDKit          3D

 44 47  0  0  0  0  0  0  0  0999 V2000
  -10.1000   -6.0158  -27.5600 C   0  0  0  0  0  0  0  0  0  0  0  0
   -8.9758   -5.3145  -26.7880 C   0  0  0  0  0  0  0  0  0  0  0  0
   -9.2252   -5.5330  -25.0302 S   0  0  0  0  0  0  0  0  0  0  0  0
   -9.0507   -6.9344  -24.7202 O   0  0  0  0  0  0  0  0  0  0  0  0
  -10.4727   -4.8436  -24.7078 O   0  0  0  0  0  0  0  0  0  0  0  0
   -7.9502   -4.7103  -24.2682 N   0  0  0  0  0  0  0  0  0  0  0  0
   -8.0611   -4.6983  -22.7657 C   0  0  0  0  0  0  0  0  0  0  0  0
   -8.0650   -3.1563  -22.7628 C   0  0  0  0  0  0  0  0  0  0  0  0
   -7.9914   -3.2243  -24.3125 C   0  0  0  0  0  0  0  0  0  0  0  0
   -7.0645   -2.8346  -24.7289 H   0  0  0  0  0  0  0  0  0  0  0  0
   -8.8538   -2.7964  -24.8362 H   0  0  0  0  0  0  0  0  0  0  0  0
   -6.8676   -2.5275  -22.0601 C   0  0  0  0  0  0  0  0  0  0  0  0
   -5.7044   -2.8115  -22.2153 O   0  0  0  0  0  0  0  0  0  0  0  0
   -7.3687   -1.5408  -21.2106 N   0  0  0  0  0  0  0  0  0  0  0  0
   -6.6003   -0.8680  -20.1984 C   0  0  0  0  0  0  0  0  0  0  0  0
   -6.9122   -1.0640  -18.8752 C   0  0  0  0  0  0  0  0  0  0  0  0
   -6.2211   -0.5464  -17.8256 N   0  0  0  0  0  0  0  0  0  0  0  0
   -5.1823    0.2048  -18.0943 C   0  0  0  0  0  0  0  0  0  0  0  0
   -4.7511    0.5211  -19.4116 C   0  0  0  0  0  0  0  0  0  0  0  0
   -3.6187    1.3563  -19.6361 C   0  0  0  0  0  0  0  0  0  0  0  0
   -3.2269    1.6608  -20.9091 C   0  0  0  0  0  0  0  0  0  0  0  0
   -3.9566    1.1466  -22.0045 C   0  0  0  0  0  0  0  0  0  0  0  0
   -5.0507    0.3392  -21.8116 C   0  0  0  0  0  0  0  0  0  0  0  0
   -5.4785   -0.0159  -20.5013 C   0  0  0  0  0  0  0  0  0  0  0  0
   -5.5949   -0.0469  -22.6663 H   0  0  0  0  0  0  0  0  0  0  0  0
   -3.6465    1.3963  -23.0144 H   0  0  0  0  0  0  0  0  0  0  0  0
   -2.3687    2.3054  -21.0880 H   0  0  0  0  0  0  0  0  0  0  0  0
   -3.0820    1.7539  -18.7776 H   0  0  0  0  0  0  0  0  0  0  0  0
   -4.6289    0.6073  -17.2442 H   0  0  0  0  0  0  0  0  0  0  0  0
   -7.7585   -1.6869  -18.6015 H   0  0  0  0  0  0  0  0  0  0  0  0
   -8.7643   -1.3867  -21.4062 C   0  0  0  0  0  0  0  0  0  0  0  0
   -9.4439   -0.4683  -21.0101 O   0  0  0  0  0  0  0  0  0  0  0  0
   -9.1711   -2.4552  -22.1684 N   0  0  0  0  0  0  0  0  0  0  0  0
  -10.5651   -2.7135  -22.4920 C   0  0  0  0  0  0  0  0  0  0  0  0
  -10.8343   -3.7567  -22.2768 H   0  0  0  0  0  0  0  0  0  0  0  0
  -10.7665   -2.5090  -23.5509 H   0  0  0  0  0  0  0  0  0  0  0  0
  -11.1526   -2.0393  -21.8672 H   0  0  0  0  0  0  0  0  0  0  0  0
   -7.1779   -5.1303  -22.2968 H   0  0  0  0  0  0  0  0  0  0  0  0
   -8.9678   -5.1515  -22.3563 H   0  0  0  0  0  0  0  0  0  0  0  0
   -8.9682   -4.2336  -26.9651 H   0  0  0  0  0  0  0  0  0  0  0  0
   -7.9879   -5.7282  -27.0104 H   0  0  0  0  0  0  0  0  0  0  0  0
   -9.9516   -5.8836  -28.6367 H   0  0  0  0  0  0  0  0  0  0  0  0
  -11.0776   -5.6022  -27.2890 H   0  0  0  0  0  0  0  0  0  0  0  0
  -10.1068   -7.0889  -27.3380 H   0  0  0  0  0  0  0  0  0  0  0  0
  1  2  1  0
  2  3  1  0
  3  4  2  0
  3  5  2  0
  3  6  1  0
  6  7  1  0
  7  8  1  0
  8  9  1  0
  9 10  1  0
  9 11  1  0
  8 12  1  0
 12 13  2  0
 12 14  1  0
 14 15  1  0
 15 16  2  0
 16 17  1  0
 17 18  2  0
 18 19  1  0
 19 20  2  0
 20 21  1  0
 21 22  2  0
 22 23  1  0
 23 24  2  0
 23 25  1  0
 22 26  1  0
 21 27  1  0
 20 28  1  0
 18 29  1  0
 16 30  1  0
 14 31  1  0
 31 32  2  0
 31 33  1  0
 33 34  1  0
 34 35  1  0
 34 36  1  0
 34 37  1  0
  7 38  1  0
  7 39  1  0
  2 40  1  0
  2 41  1  0
  1 42  1  0
  1 43  1  0
  1 44  1  0
  9  6  1  0
 24 15  1  0
 33  8  1  0
 24 19  1  0
M  END
>  <cnnaffinities>  (8) 
[5.36909, 5.37184, 5.38035, 5.4033, 5.39372, 5.35691, 5.3847, 5.39211, 5.31055, 5.38269, 5.38765, 5.38517, 5.2838, 5.28403, 5.28387, 5.28631]

>  <score>  (8) 
5.36909

>  <index>  (8) 
7

>  <Smiles>  (8) 
C(C(S(=O)(=O)N1C(C2(C1([H])[H])C(=O)N(c1c(nc(c3c(c(c(c(c13)[H])[H])[H])[H])[H])[H])C(=O)N2C([H])([H])[H])([H])[H])([H])[H])([H])([H])[H]

>  <h>  (8) 
<NA>

>  <Training>  (8) 
True

>  <Success>  (8) 
True

>  <enamine_searched>  (8) 
False

>  <enamine_id>  (8) 
nan

$$$$

     RDKit          3D

 60 64  0  0  0  0  0  0  0  0999 V2000
   -7.4077    3.3839  -21.7991 C   0  0  0  0  0  0  0  0  0  0  0  0
   -8.2898    2.9281  -22.8567 N   0  0  0  0  0  0  0  0  0  0  0  0
   -7.7173    2.2335  -23.8666 C   0  0  0  0  0  0  0  0  0  0  0  0
   -6.5004    2.1257  -23.9746 O   0  0  0  0  0  0  0  0  0  0  0  0
   -8.6638    1.6066  -24.8912 C   0  0  0  0  0  0  0  0  0  0  0  0
   -9.3846    0.4499  -24.3918 N   0  0  0  0  0  0  0  0  0  0  0  0
   -8.6723   -0.8059  -24.2289 C   0  0  0  0  0  0  0  0  0  0  0  0
   -9.0620   -1.5225  -22.9077 C   0  0  2  0  0  0  0  0  0  0  0  0
   -8.5147   -0.7314  -21.6884 C   0  0  0  0  0  0  0  0  0  0  0  0
   -8.9613    0.2931  -21.2150 O   0  0  0  0  0  0  0  0  0  0  0  0
   -7.4050   -1.3858  -21.2004 N   0  0  0  0  0  0  0  0  0  0  0  0
   -6.6057   -0.8102  -20.1730 C   0  0  0  0  0  0  0  0  0  0  0  0
   -6.9116   -1.0417  -18.8565 C   0  0  0  0  0  0  0  0  0  0  0  0
   -6.2113   -0.5490  -17.8036 N   0  0  0  0  0  0  0  0  0  0  0  0
   -5.1711    0.2060  -18.0735 C   0  0  0  0  0  0  0  0  0  0  0  0
   -4.7329    0.5300  -19.3895 C   0  0  0  0  0  0  0  0  0  0  0  0
   -3.6061    1.3640  -19.6366 C   0  0  0  0  0  0  0  0  0  0  0  0
   -3.2204    1.6553  -20.9165 C   0  0  0  0  0  0  0  0  0  0  0  0
   -3.9412    1.1263  -22.0109 C   0  0  0  0  0  0  0  0  0  0  0  0
   -5.0343    0.3192  -21.7981 C   0  0  0  0  0  0  0  0  0  0  0  0
   -5.4666    0.0023  -20.4817 C   0  0  0  0  0  0  0  0  0  0  0  0
   -5.5908   -0.0659  -22.6482 H   0  0  0  0  0  0  0  0  0  0  0  0
   -3.6493    1.3722  -23.0261 H   0  0  0  0  0  0  0  0  0  0  0  0
   -2.3684    2.3053  -21.0968 H   0  0  0  0  0  0  0  0  0  0  0  0
   -3.0725    1.7739  -18.7826 H   0  0  0  0  0  0  0  0  0  0  0  0
   -4.6215    0.6099  -17.2229 H   0  0  0  0  0  0  0  0  0  0  0  0
   -7.7628   -1.6689  -18.6026 H   0  0  0  0  0  0  0  0  0  0  0  0
   -7.0683   -2.5995  -21.9199 C   0  0  0  0  0  0  0  0  0  0  0  0
   -8.3290   -2.8924  -22.7580 C   0  0  2  0  0  0  0  0  0  0  0  0
   -7.9800   -3.6576  -24.0328 C   0  0  0  0  0  0  0  0  0  0  0  0
   -9.1505   -3.9386  -24.7607 O   0  0  0  0  0  0  0  0  0  0  0  0
   -8.8659   -4.5845  -25.9793 C   0  0  0  0  0  0  0  0  0  0  0  0
   -8.2673   -3.9483  -26.6521 H   0  0  0  0  0  0  0  0  0  0  0  0
   -8.3106   -5.5219  -25.8198 H   0  0  0  0  0  0  0  0  0  0  0  0
   -9.8204   -4.8117  -26.4590 H   0  0  0  0  0  0  0  0  0  0  0  0
   -7.2783   -3.0682  -24.6490 H   0  0  0  0  0  0  0  0  0  0  0  0
   -7.4641   -4.6015  -23.7805 H   0  0  0  0  0  0  0  0  0  0  0  0
   -8.9988   -3.5312  -22.1829 H   0  0  0  0  0  0  0  0  0  0  0  0
   -6.1866   -2.4469  -22.5658 H   0  0  0  0  0  0  0  0  0  0  0  0
   -6.8253   -3.4102  -21.2216 H   0  0  0  0  0  0  0  0  0  0  0  0
  -10.5804   -1.5697  -22.8363 C   0  0  0  0  0  0  0  0  0  0  0  0
  -11.2168   -2.4500  -21.9517 C   0  0  0  0  0  0  0  0  0  0  0  0
  -12.5957   -2.4612  -21.8560 C   0  0  0  0  0  0  0  0  0  0  0  0
  -13.3826   -3.5338  -20.7365 Cl  0  0  0  0  0  0  0  0  0  0  0  0
  -13.3838   -1.6006  -22.6195 C   0  0  0  0  0  0  0  0  0  0  0  0
  -12.7621   -0.6794  -23.4380 C   0  0  0  0  0  0  0  0  0  0  0  0
  -11.3704   -0.6317  -23.5184 C   0  0  0  0  0  0  0  0  0  0  0  0
  -10.7429    0.5233  -24.2414 C   0  0  0  0  0  0  0  0  0  0  0  0
  -11.3976    1.4800  -24.6270 O   0  0  0  0  0  0  0  0  0  0  0  0
  -13.3283    0.0513  -24.0052 H   0  0  0  0  0  0  0  0  0  0  0  0
  -14.4627   -1.6399  -22.5282 H   0  0  0  0  0  0  0  0  0  0  0  0
  -10.6423   -3.1023  -21.3030 H   0  0  0  0  0  0  0  0  0  0  0  0
   -8.8829   -1.4849  -25.0705 H   0  0  0  0  0  0  0  0  0  0  0  0
   -7.6031   -0.5689  -24.2118 H   0  0  0  0  0  0  0  0  0  0  0  0
   -9.4378    2.3107  -25.2084 H   0  0  0  0  0  0  0  0  0  0  0  0
   -8.0295    1.3411  -25.7448 H   0  0  0  0  0  0  0  0  0  0  0  0
   -9.2856    2.8433  -22.6942 H   0  0  0  0  0  0  0  0  0  0  0  0
   -6.7249    4.1623  -22.1645 H   0  0  0  0  0  0  0  0  0  0  0  0
   -6.7992    2.5351  -21.4381 H   0  0  0  0  0  0  0  0  0  0  0  0
   -8.0187    3.8093  -21.0044 H   0  0  0  0  0  0  0  0  0  0  0  0
  1  2  1  0
  2  3  1  0
  3  4  2  0
  3  5  1  0
  5  6  1  0
  6  7  1  0
  8  7  1  6
  8  9  1  0
  9 10  2  0
  9 11  1  0
 11 12  1  0
 12 13  2  0
 13 14  1  0
 14 15  2  0
 15 16  1  0
 16 17  2  0
 17 18  1  0
 18 19  2  0
 19 20  1  0
 20 21  2  0
 20 22  1  0
 19 23  1  0
 18 24  1  0
 17 25  1  0
 15 26  1  0
 13 27  1  0
 11 28  1  0
 28 29  1  0
 29 30  1  0
 30 31  1  0
 31 32  1  0
 32 33  1  0
 32 34  1  0
 32 35  1  0
 30 36  1  0
 30 37  1  0
 29 38  1  1
 28 39  1  0
 28 40  1  0
  8 41  1  0
 41 42  2  0
 42 43  1  0
 43 44  1  0
 43 45  2  0
 45 46  1  0
 46 47  2  0
 47 48  1  0
 48 49  2  0
 46 50  1  0
 45 51  1  0
 42 52  1  0
  7 53  1  0
  7 54  1  0
  5 55  1  0
  5 56  1  0
  2 57  1  0
  1 58  1  0
  1 59  1  0
  1 60  1  0
 48  6  1  0
 29  8  1  0
 47 41  1  0
 21 12  1  0
 21 16  1  0
M  END
>  <cnnaffinities>  (9) 
[6.51707, 6.41946, 6.45131, 6.35656, 6.64948]

>  <score>  (9) 
6.51707

>  <index>  (9) 
8

>  <Smiles>  (9) 
C(N(C(=O)C(N1C([C@@]2(C(=O)N(c3c(nc(c4c(c(c(c(c34)[H])[H])[H])[H])[H])[H])C([C@@]2(C(OC([H])([H])[H])([H])[H])[H])([H])[H])c2c(c(Cl)c(c(c2C1=O)[H])[H])[H])([H])[H])([H])[H])[H])([H])([H])[H]

>  <h>  (9) 
<NA>

>  <Training>  (9) 
True

>  <Success>  (9) 
True

>  <enamine_searched>  (9) 
False

>  <enamine_id>  (9) 
nan

$$$$

     RDKit          3D

 41 43  0  0  0  0  0  0  0  0999 V2000
  -13.1804   -2.9585  -22.8330 C   0  0  0  0  0  0  0  0  0  0  0  0
  -11.9815   -2.0722  -23.1651 C   0  0  1  0  0  0  0  0  0  0  0  0
  -12.1689   -0.6838  -22.5905 C   0  0  0  0  0  0  0  0  0  0  0  0
  -11.3401    0.3369  -22.7922 C   0  0  0  0  0  0  0  0  0  0  0  0
  -10.0527    0.2067  -23.5776 C   0  0  0  0  0  0  0  0  0  0  0  0
   -9.1097   -0.7887  -23.0456 N   0  0  0  0  0  0  0  0  0  0  0  0
   -8.3821   -0.4073  -21.9287 C   0  0  0  0  0  0  0  0  0  0  0  0
   -8.4756    0.7174  -21.4727 O   0  0  0  0  0  0  0  0  0  0  0  0
   -7.4315   -1.4339  -21.2725 C   0  0  0  0  0  0  0  0  0  0  0  0
   -6.5794   -0.8284  -20.1802 C   0  0  0  0  0  0  0  0  0  0  0  0
   -6.8784   -1.0399  -18.8605 C   0  0  0  0  0  0  0  0  0  0  0  0
   -6.1979   -0.5363  -17.7937 N   0  0  0  0  0  0  0  0  0  0  0  0
   -5.1590    0.2194  -18.0624 C   0  0  0  0  0  0  0  0  0  0  0  0
   -4.7255    0.5346  -19.3785 C   0  0  0  0  0  0  0  0  0  0  0  0
   -3.5998    1.3660  -19.6203 C   0  0  0  0  0  0  0  0  0  0  0  0
   -3.2114    1.6587  -20.8999 C   0  0  0  0  0  0  0  0  0  0  0  0
   -3.9342    1.1310  -21.9929 C   0  0  0  0  0  0  0  0  0  0  0  0
   -5.0266    0.3237  -21.7865 C   0  0  0  0  0  0  0  0  0  0  0  0
   -5.4542    0.0017  -20.4714 C   0  0  0  0  0  0  0  0  0  0  0  0
   -5.5764   -0.0660  -22.6375 H   0  0  0  0  0  0  0  0  0  0  0  0
   -3.6226    1.3731  -23.0052 H   0  0  0  0  0  0  0  0  0  0  0  0
   -2.3537    2.3024  -21.0867 H   0  0  0  0  0  0  0  0  0  0  0  0
   -3.0558    1.7753  -18.7712 H   0  0  0  0  0  0  0  0  0  0  0  0
   -4.6015    0.6266  -17.2157 H   0  0  0  0  0  0  0  0  0  0  0  0
   -7.7300   -1.6613  -18.5874 H   0  0  0  0  0  0  0  0  0  0  0  0
   -6.7961   -1.8972  -22.0394 H   0  0  0  0  0  0  0  0  0  0  0  0
   -8.0388   -2.2473  -20.8459 H   0  0  0  0  0  0  0  0  0  0  0  0
   -9.4084   -2.1777  -23.3800 C   0  0  0  0  0  0  0  0  0  0  0  0
  -10.6679   -2.7456  -22.7180 C   0  0  0  0  0  0  0  0  0  0  0  0
  -10.5735   -2.6533  -21.6307 H   0  0  0  0  0  0  0  0  0  0  0  0
  -10.7223   -3.8237  -22.9307 H   0  0  0  0  0  0  0  0  0  0  0  0
   -9.5383   -2.2289  -24.4665 H   0  0  0  0  0  0  0  0  0  0  0  0
   -8.5368   -2.7959  -23.1512 H   0  0  0  0  0  0  0  0  0  0  0  0
   -9.5453    1.1709  -23.6344 H   0  0  0  0  0  0  0  0  0  0  0  0
  -10.2886   -0.0893  -24.6067 H   0  0  0  0  0  0  0  0  0  0  0  0
  -11.5527    1.3076  -22.3424 H   0  0  0  0  0  0  0  0  0  0  0  0
  -13.0341   -0.5252  -21.9455 H   0  0  0  0  0  0  0  0  0  0  0  0
  -11.9332   -1.9744  -24.2598 H   0  0  0  0  0  0  0  0  0  0  0  0
  -13.0994   -3.9399  -23.3166 H   0  0  0  0  0  0  0  0  0  0  0  0
  -13.2490   -3.1223  -21.7507 H   0  0  0  0  0  0  0  0  0  0  0  0
  -14.1154   -2.4927  -23.1664 H   0  0  0  0  0  0  0  0  0  0  0  0
  1  2  1  0
  2  3  1  0
  3  4  2  0
  4  5  1  0
  5  6  1  0
  6  7  1  0
  7  8  2  0
  7  9  1  0
  9 10  1  0
 10 11  2  0
 11 12  1  0
 12 13  2  0
 13 14  1  0
 14 15  2  0
 15 16  1  0
 16 17  2  0
 17 18  1  0
 18 19  2  0
 18 20  1  0
 17 21  1  0
 16 22  1  0
 15 23  1  0
 13 24  1  0
 11 25  1  0
  9 26  1  0
  9 27  1  0
  6 28  1  0
 28 29  1  0
 29 30  1  0
 29 31  1  0
 28 32  1  0
 28 33  1  0
  5 34  1  0
  5 35  1  0
  4 36  1  0
  3 37  1  0
  2 38  1  6
  1 39  1  0
  1 40  1  0
  1 41  1  0
 29  2  1  0
 19 10  1  0
 19 14  1  0
M  END
>  <cnnaffinities>  (10) 
[5.1806, 4.86857]

>  <score>  (10) 
5.1806

>  <index>  (10) 
9

>  <Smiles>  (10) 
C([C@]1(C(=C(C(N(C(=O)C(c2c(nc(c3c(c(c(c(c23)[H])[H])[H])[H])[H])[H])([H])[H])C(C1([H])[H])([H])[H])([H])[H])[H])[H])[H])([H])([H])[H]

>  <h>  (10) 
<NA>

>  <Training>  (10) 
True

>  <Success>  (10) 
True

>  <enamine_searched>  (10) 
False

>  <enamine_id>  (10) 
nan

$$$$

     RDKit          3D

 57 62  0  0  0  0  0  0  0  0999 V2000
   -8.1604   -3.6789  -23.9635 C   0  0  0  0  0  0  0  0  0  0  0  0
   -8.3808   -3.0051  -22.6128 C   0  0  1  0  0  0  0  0  0  0  0  0
   -7.0558   -2.5183  -21.9907 C   0  0  0  0  0  0  0  0  0  0  0  0
   -7.4480   -1.3778  -21.1931 N   0  0  0  0  0  0  0  0  0  0  0  0
   -6.6373   -0.8314  -20.1649 C   0  0  0  0  0  0  0  0  0  0  0  0
   -6.9592   -1.0445  -18.8458 C   0  0  0  0  0  0  0  0  0  0  0  0
   -6.2537   -0.5593  -17.7938 N   0  0  0  0  0  0  0  0  0  0  0  0
   -5.2015    0.1799  -18.0631 C   0  0  0  0  0  0  0  0  0  0  0  0
   -4.7485    0.4731  -19.3828 C   0  0  0  0  0  0  0  0  0  0  0  0
   -3.6414    1.3334  -19.6233 C   0  0  0  0  0  0  0  0  0  0  0  0
   -3.2385    1.6025  -20.9041 C   0  0  0  0  0  0  0  0  0  0  0  0
   -3.8905    0.9915  -21.9983 C   0  0  0  0  0  0  0  0  0  0  0  0
   -4.9603    0.1499  -21.7882 C   0  0  0  0  0  0  0  0  0  0  0  0
   -5.4492   -0.0932  -20.4734 C   0  0  0  0  0  0  0  0  0  0  0  0
   -5.4328   -0.3335  -22.6381 H   0  0  0  0  0  0  0  0  0  0  0  0
   -3.5635    1.2142  -23.0123 H   0  0  0  0  0  0  0  0  0  0  0  0
   -2.4240    2.2976  -21.0887 H   0  0  0  0  0  0  0  0  0  0  0  0
   -3.1427    1.7854  -18.7703 H   0  0  0  0  0  0  0  0  0  0  0  0
   -4.6430    0.5894  -17.2189 H   0  0  0  0  0  0  0  0  0  0  0  0
   -7.8316   -1.6430  -18.5925 H   0  0  0  0  0  0  0  0  0  0  0  0
   -8.7060   -0.8956  -21.4940 C   0  0  0  0  0  0  0  0  0  0  0  0
   -9.2285    0.0517  -20.9481 O   0  0  0  0  0  0  0  0  0  0  0  0
   -9.3162   -1.7550  -22.6388 C   0  0  1  0  0  0  0  0  0  0  0  0
   -9.1620   -1.0037  -23.9963 C   0  0  0  0  0  0  0  0  0  0  0  0
  -10.0219    0.1544  -24.1202 N   0  0  0  0  0  0  0  0  0  0  0  0
   -9.4747    1.3873  -24.6834 C   0  0  0  0  0  0  0  0  0  0  0  0
   -8.6340    2.1154  -23.6835 C   0  0  0  0  0  0  0  0  0  0  0  0
   -9.0906    2.9241  -22.7008 C   0  0  0  0  0  0  0  0  0  0  0  0
   -7.9981    3.3538  -21.9769 N   0  0  0  0  0  4  0  0  0  0  0  0
   -6.8920    2.8179  -22.5064 C   0  0  0  0  0  0  0  0  0  0  0  0
   -7.2531    2.0382  -23.5468 N   0  0  0  0  0  0  0  0  0  0  0  0
   -6.6431    1.4387  -24.1015 H   0  0  0  0  0  0  0  0  0  0  0  0
   -5.8834    2.9857  -22.1749 H   0  0  0  0  0  0  0  0  0  0  0  0
   -8.0277    3.9525  -21.1574 H   0  0  0  0  0  0  0  0  0  0  0  0
  -10.1007    3.2405  -22.4516 H   0  0  0  0  0  0  0  0  0  0  0  0
   -8.9141    1.1856  -25.6080 H   0  0  0  0  0  0  0  0  0  0  0  0
  -10.3537    1.9853  -24.9438 H   0  0  0  0  0  0  0  0  0  0  0  0
  -11.3230    0.1430  -23.6928 C   0  0  0  0  0  0  0  0  0  0  0  0
  -12.1050    1.0462  -23.9467 O   0  0  0  0  0  0  0  0  0  0  0  0
  -11.7432   -1.0539  -22.8901 C   0  0  0  0  0  0  0  0  0  0  0  0
  -13.1063   -1.1652  -22.6122 C   0  0  0  0  0  0  0  0  0  0  0  0
  -13.5695   -2.1763  -21.8018 C   0  0  0  0  0  0  0  0  0  0  0  0
  -12.6489   -3.0848  -21.2988 C   0  0  0  0  0  0  0  0  0  0  0  0
  -13.1059   -3.9819  -20.4091 F   0  0  0  0  0  0  0  0  0  0  0  0
  -11.3038   -3.0514  -21.6331 C   0  0  0  0  0  0  0  0  0  0  0  0
  -10.8117   -1.9944  -22.4145 C   0  0  0  0  0  0  0  0  0  0  0  0
  -10.6468   -3.8194  -21.2372 H   0  0  0  0  0  0  0  0  0  0  0  0
  -14.6148   -2.2571  -21.5326 H   0  0  0  0  0  0  0  0  0  0  0  0
  -13.7759   -0.4190  -23.0285 H   0  0  0  0  0  0  0  0  0  0  0  0
   -8.1230   -0.6788  -24.1123 H   0  0  0  0  0  0  0  0  0  0  0  0
   -9.3970   -1.6912  -24.8174 H   0  0  0  0  0  0  0  0  0  0  0  0
   -6.3409   -2.2319  -22.7756 H   0  0  0  0  0  0  0  0  0  0  0  0
   -6.5685   -3.2762  -21.3669 H   0  0  0  0  0  0  0  0  0  0  0  0
   -8.8061   -3.7321  -21.9165 H   0  0  0  0  0  0  0  0  0  0  0  0
   -7.5455   -4.5788  -23.8732 H   0  0  0  0  0  0  0  0  0  0  0  0
   -7.6361   -2.9988  -24.6452 H   0  0  0  0  0  0  0  0  0  0  0  0
   -9.1113   -3.9558  -24.4302 H   0  0  0  0  0  0  0  0  0  0  0  0
  1  2  1  0
  2  3  1  0
  3  4  1  0
  4  5  1  0
  5  6  2  0
  6  7  1  0
  7  8  2  0
  8  9  1  0
  9 10  2  0
 10 11  1  0
 11 12  2  0
 12 13  1  0
 13 14  2  0
 13 15  1  0
 12 16  1  0
 11 17  1  0
 10 18  1  0
  8 19  1  0
  6 20  1  0
  4 21  1  0
 21 22  2  0
 21 23  1  0
 23 24  1  6
 24 25  1  0
 25 26  1  0
 26 27  1  0
 27 28  2  0
 28 29  1  0
 29 30  2  0
 30 31  1  0
 31 32  1  0
 30 33  1  0
 29 34  1  0
 28 35  1  0
 26 36  1  0
 26 37  1  0
 25 38  1  0
 38 39  2  0
 38 40  1  0
 40 41  2  0
 41 42  1  0
 42 43  2  0
 43 44  1  0
 43 45  1  0
 45 46  2  0
 45 47  1  0
 42 48  1  0
 41 49  1  0
 24 50  1  0
 24 51  1  0
  3 52  1  0
  3 53  1  0
  2 54  1  1
  1 55  1  0
  1 56  1  0
  1 57  1  0
 23  2  1  0
 31 27  1  0
 46 40  1  0
 14  5  1  0
 46 23  1  0
 14  9  1  0
M  CHG  1  29   1
M  END
>  <cnnaffinities>  (11) 
[6.65746]

>  <score>  (11) 
6.65746

>  <index>  (11) 
10

>  <Smiles>  (11) 
C([C@]1(C(N(c2c(nc(c3c(c(c(c(c23)[H])[H])[H])[H])[H])[H])C(=O)[C@]21C(N(C(c1c([n+](c(n1[H])[H])[H])[H])([H])[H])C(=O)c1c(c(c(F)c(c21)[H])[H])[H])([H])[H])([H])[H])[H])([H])([H])[H]

>  <h>  (11) 
<NA>

>  <Training>  (11) 
True

>  <Success>  (11) 
True

>  <enamine_searched>  (11) 
False

>  <enamine_id>  (11) 
nan

$$$$

     RDKit          3D

 48 52  0  0  0  0  0  0  0  0999 V2000
   -9.3393   -4.1113  -22.2951 C   0  0  0  0  0  0  0  0  0  0  0  0
   -8.5726   -2.8843  -22.2342 N   0  0  0  0  0  0  0  0  0  0  0  0
   -7.4814   -2.7892  -21.4094 C   0  0  0  0  0  0  0  0  0  0  0  0
   -6.8459   -3.6937  -20.9144 O   0  0  0  0  0  0  0  0  0  0  0  0
   -7.2231   -1.4207  -21.2384 N   0  0  0  0  0  0  0  0  0  0  0  0
   -6.4613   -0.8829  -20.1674 C   0  0  0  0  0  0  0  0  0  0  0  0
   -6.8458   -1.0883  -18.8677 C   0  0  0  0  0  0  0  0  0  0  0  0
   -6.2258   -0.5393  -17.7933 N   0  0  0  0  0  0  0  0  0  0  0  0
   -5.1879    0.2302  -18.0305 C   0  0  0  0  0  0  0  0  0  0  0  0
   -4.6859    0.5220  -19.3316 C   0  0  0  0  0  0  0  0  0  0  0  0
   -3.5655    1.3700  -19.5397 C   0  0  0  0  0  0  0  0  0  0  0  0
   -3.1350    1.6442  -20.8094 C   0  0  0  0  0  0  0  0  0  0  0  0
   -3.8025    1.0982  -21.9282 C   0  0  0  0  0  0  0  0  0  0  0  0
   -4.8856    0.2745  -21.7528 C   0  0  0  0  0  0  0  0  0  0  0  0
   -5.3485   -0.0378  -20.4439 C   0  0  0  0  0  0  0  0  0  0  0  0
   -5.4116   -0.1320  -22.6116 H   0  0  0  0  0  0  0  0  0  0  0  0
   -3.4627    1.3406  -22.9312 H   0  0  0  0  0  0  0  0  0  0  0  0
   -2.2788    2.2945  -20.9695 H   0  0  0  0  0  0  0  0  0  0  0  0
   -3.0722    1.8025  -18.6739 H   0  0  0  0  0  0  0  0  0  0  0  0
   -4.6935    0.6708  -17.1645 H   0  0  0  0  0  0  0  0  0  0  0  0
   -7.7130   -1.7060  -18.6481 H   0  0  0  0  0  0  0  0  0  0  0  0
   -8.1189   -0.6390  -21.9644 C   0  0  0  0  0  0  0  0  0  0  0  0
   -8.2057    0.5631  -21.8918 O   0  0  0  0  0  0  0  0  0  0  0  0
   -8.9777   -1.6039  -22.7590 C   0  0  0  0  0  0  0  0  0  0  0  0
  -10.4467   -1.1415  -22.7497 C   0  0  0  0  0  0  0  0  0  0  0  0
  -10.3272   -0.7589  -24.1761 N   0  0  0  0  0  0  0  0  0  0  0  0
  -10.6420    0.7813  -24.8090 S   0  0  0  0  0  0  0  0  0  0  0  0
   -9.6942    3.0415  -24.2497 O   0  0  0  0  0  0  0  0  0  0  0  0
   -9.6541    1.7972  -24.0435 O   0  0  0  0  0  0  0  0  0  0  0  0
  -12.2035    1.1364  -24.0628 C   0  0  0  0  0  0  0  0  0  0  0  0
  -12.7257    2.3986  -23.9428 C   0  0  0  0  0  0  0  0  0  0  0  0
  -13.9739    2.4610  -23.3164 C   0  0  0  0  0  0  0  0  0  0  0  0
  -14.2327    2.8018  -23.3955 C   0  0  0  0  0  0  0  0  0  0  0  0
  -14.2797    0.5356  -23.1458 C   0  0  0  0  0  0  0  0  0  0  0  0
  -13.1304    0.0601  -23.6375 C   0  0  0  0  0  0  0  0  0  0  0  0
  -12.8446   -0.9854  -23.7366 H   0  0  0  0  0  0  0  0  0  0  0  0
  -15.1282    0.0472  -22.6801 H   0  0  0  0  0  0  0  0  0  0  0  0
  -15.2119    2.4220  -23.8041 H   0  0  0  0  0  0  0  0  0  0  0  0
  -14.4935    3.8563  -23.4390 H   0  0  0  0  0  0  0  0  0  0  0  0
  -12.1806    3.2905  -23.8858 H   0  0  0  0  0  0  0  0  0  0  0  0
   -8.9839   -1.3697  -24.2931 C   0  0  0  0  0  0  0  0  0  0  0  0
   -8.1903   -0.7340  -24.6931 H   0  0  0  0  0  0  0  0  0  0  0  0
   -9.0167   -2.3085  -24.8575 H   0  0  0  0  0  0  0  0  0  0  0  0
  -11.1716   -1.9473  -22.5914 H   0  0  0  0  0  0  0  0  0  0  0  0
  -10.6161   -0.3314  -22.0391 H   0  0  0  0  0  0  0  0  0  0  0  0
  -10.0967   -4.0522  -23.0803 H   0  0  0  0  0  0  0  0  0  0  0  0
   -8.6603   -4.9403  -22.5106 H   0  0  0  0  0  0  0  0  0  0  0  0
   -9.8310   -4.3104  -21.3345 H   0  0  0  0  0  0  0  0  0  0  0  0
  1  2  1  0
  2  3  1  0
  3  4  2  0
  3  5  1  0
  5  6  1  0
  6  7  2  0
  7  8  1  0
  8  9  2  0
  9 10  1  0
 10 11  2  0
 11 12  1  0
 12 13  2  0
 13 14  1  0
 14 15  2  0
 14 16  1  0
 13 17  1  0
 12 18  1  0
 11 19  1  0
  9 20  1  0
  7 21  1  0
  5 22  1  0
 22 23  2  0
 22 24  1  0
 24 25  1  0
 25 26  1  0
 26 27  1  0
 27 28  2  0
 27 29  2  0
 27 30  1  0
 30 31  2  0
 31 32  1  0
 32 33  2  0
 33 34  1  0
 34 35  2  0
 35 36  1  0
 34 37  1  0
 33 38  1  0
 32 39  1  0
 31 40  1  0
 26 41  1  0
 41 42  1  0
 41 43  1  0
 25 44  1  0
 25 45  1  0
  1 46  1  0
  1 47  1  0
  1 48  1  0
 24  2  1  0
 35 30  1  0
 15  6  1  0
 41 24  1  0
 15 10  1  0
M  END
>  <cnnaffinities>  (12) 
[5.54186]

>  <score>  (12) 
5.54186

>  <index>  (12) 
11

>  <Smiles>  (12) 
C(N1C(=O)N(c2c(nc(c3c(c(c(c(c23)[H])[H])[H])[H])[H])[H])C(=O)C21C(N(S(=O)(=O)c1c(c(c(c(c1[H])[H])[H])[H])[H])C2([H])[H])([H])[H])([H])([H])[H]

>  <h>  (12) 
<NA>

>  <Training>  (12) 
True

>  <Success>  (12) 
True

>  <enamine_searched>  (12) 
False

>  <enamine_id>  (12) 
nan

$$$$

     RDKit          3D

 76 82  0  0  0  0  0  0  0  0999 V2000
  -12.1996    0.9990  -24.2700 O   0  0  0  0  0  0  0  0  0  0  0  0
  -11.5147    0.0312  -23.9527 C   0  0  0  0  0  0  0  0  0  0  0  0
  -12.0364   -1.0255  -23.0506 C   0  0  0  0  0  0  0  0  0  0  0  0
  -13.3922   -0.9353  -22.7577 C   0  0  0  0  0  0  0  0  0  0  0  0
  -13.9880   -1.8703  -21.9513 C   0  0  0  0  0  0  0  0  0  0  0  0
  -13.1900   -2.8928  -21.4444 C   0  0  0  0  0  0  0  0  0  0  0  0
  -13.9559   -4.0617  -20.4190 Cl  0  0  0  0  0  0  0  0  0  0  0  0
  -11.8223   -2.9627  -21.6862 C   0  0  0  0  0  0  0  0  0  0  0  0
  -11.1945   -1.9992  -22.4823 C   0  0  0  0  0  0  0  0  0  0  0  0
   -9.6777   -1.8885  -22.6613 C   0  0  1  0  0  0  0  0  0  0  0  0
   -9.4411   -1.3014  -24.0813 C   0  0  0  0  0  0  0  0  0  0  0  0
  -10.2222   -0.1094  -24.3532 N   0  0  0  0  0  0  0  0  0  0  0  0
   -9.5562    1.1197  -24.7395 C   0  0  0  0  0  0  0  0  0  0  0  0
   -9.2582    1.9577  -23.4845 C   0  0  0  0  0  0  0  0  0  0  0  0
   -8.9899    3.3713  -23.8143 N   0  0  0  0  0  4  0  0  0  0  0  0
   -8.1163    4.0951  -22.8339 C   0  0  0  0  0  0  0  0  0  0  0  0
   -7.7934    5.4712  -23.3918 C   0  0  0  0  0  0  0  0  0  0  0  0
   -8.9605    6.2382  -23.6318 O   0  0  0  0  0  0  0  0  0  0  0  0
   -9.8372    5.5709  -24.5227 C   0  0  0  0  0  0  0  0  0  0  0  0
  -10.2419    4.2048  -23.9847 C   0  0  0  0  0  0  0  0  0  0  0  0
  -10.9471    3.6836  -24.6396 H   0  0  0  0  0  0  0  0  0  0  0  0
  -10.7102    4.3275  -23.0009 H   0  0  0  0  0  0  0  0  0  0  0  0
  -10.7106    6.2114  -24.6568 H   0  0  0  0  0  0  0  0  0  0  0  0
   -9.3480    5.4365  -25.5014 H   0  0  0  0  0  0  0  0  0  0  0  0
   -7.2343    5.3386  -24.3315 H   0  0  0  0  0  0  0  0  0  0  0  0
   -7.1753    6.0350  -22.6921 H   0  0  0  0  0  0  0  0  0  0  0  0
   -7.2106    3.5107  -22.6530 H   0  0  0  0  0  0  0  0  0  0  0  0
   -8.6603    4.1919  -21.8892 H   0  0  0  0  0  0  0  0  0  0  0  0
   -8.4941    3.3361  -24.7257 H   0  0  0  0  0  0  0  0  0  0  0  0
  -10.1110    1.9082  -22.8053 H   0  0  0  0  0  0  0  0  0  0  0  0
   -8.4024    1.5383  -22.9464 H   0  0  0  0  0  0  0  0  0  0  0  0
  -10.2137    1.6585  -25.4299 H   0  0  0  0  0  0  0  0  0  0  0  0
   -8.6476    0.8571  -25.2975 H   0  0  0  0  0  0  0  0  0  0  0  0
   -8.3795   -1.0510  -24.1895 H   0  0  0  0  0  0  0  0  0  0  0  0
   -9.6860   -2.0711  -24.8245 H   0  0  0  0  0  0  0  0  0  0  0  0
   -9.0606   -0.9134  -21.6089 C   0  0  0  0  0  0  0  0  0  0  0  0
   -9.5899    0.0611  -21.1117 O   0  0  0  0  0  0  0  0  0  0  0  0
   -7.7687   -1.3090  -21.3423 N   0  0  0  0  0  0  0  0  0  0  0  0
   -6.9824   -0.7773  -20.2856 C   0  0  0  0  0  0  0  0  0  0  0  0
   -7.3028   -1.0530  -18.9793 C   0  0  0  0  0  0  0  0  0  0  0  0
   -6.5759   -0.6533  -17.9036 N   0  0  0  0  0  0  0  0  0  0  0  0
   -5.4934    0.0500  -18.1389 C   0  0  0  0  0  0  0  0  0  0  0  0
   -5.0379    0.4066  -19.4392 C   0  0  0  0  0  0  0  0  0  0  0  0
   -3.8708    1.1932  -19.6332 C   0  0  0  0  0  0  0  0  0  0  0  0
   -3.4399    1.4863  -20.8982 C   0  0  0  0  0  0  0  0  0  0  0  0
   -4.1409    0.9929  -22.0195 C   0  0  0  0  0  0  0  0  0  0  0  0
   -5.2783    0.2385  -21.8550 C   0  0  0  0  0  0  0  0  0  0  0  0
   -5.7755   -0.0512  -20.5566 C   0  0  0  0  0  0  0  0  0  0  0  0
   -5.8085   -0.1401  -22.7230 H   0  0  0  0  0  0  0  0  0  0  0  0
   -3.7804    1.2148  -23.0194 H   0  0  0  0  0  0  0  0  0  0  0  0
   -2.5557    2.0992  -21.0489 H   0  0  0  0  0  0  0  0  0  0  0  0
   -3.3356    1.5572  -18.7590 H   0  0  0  0  0  0  0  0  0  0  0  0
   -4.9076    0.3704  -17.2758 H   0  0  0  0  0  0  0  0  0  0  0  0
   -8.1862   -1.6478  -18.7573 H   0  0  0  0  0  0  0  0  0  0  0  0
   -7.4103   -2.5557  -21.9754 C   0  0  0  0  0  0  0  0  0  0  0  0
   -8.7634   -3.1423  -22.4208 C   0  0  2  0  0  0  0  0  0  0  0  0
   -8.5119   -4.1506  -23.5592 C   0  0  0  0  0  0  0  0  0  0  0  0
   -7.4959   -5.1103  -23.1557 N   0  0  0  0  0  0  0  0  0  0  0  0
   -6.2759   -5.2740  -23.7422 C   0  0  0  0  0  0  0  0  0  0  0  0
   -5.8779   -4.4325  -24.7092 N   0  0  0  0  0  0  0  0  0  0  0  0
   -4.6954   -4.7046  -25.2697 C   0  0  0  0  0  0  0  0  0  0  0  0
   -3.8947   -5.7663  -24.8848 C   0  0  0  0  0  0  0  0  0  0  0  0
   -4.3880   -6.5318  -23.8320 C   0  0  0  0  0  0  0  0  0  0  0  0
   -5.5642   -6.3232  -23.2664 N   0  0  0  0  0  0  0  0  0  0  0  0
   -3.8027   -7.3588  -23.4294 H   0  0  0  0  0  0  0  0  0  0  0  0
   -2.9426   -5.9743  -25.3588 H   0  0  0  0  0  0  0  0  0  0  0  0
   -4.3883   -4.0437  -26.0793 H   0  0  0  0  0  0  0  0  0  0  0  0
   -7.7417   -5.8626  -22.5310 H   0  0  0  0  0  0  0  0  0  0  0  0
   -9.4315   -4.6817  -23.8366 H   0  0  0  0  0  0  0  0  0  0  0  0
   -8.1152   -3.6624  -24.4539 H   0  0  0  0  0  0  0  0  0  0  0  0
   -9.1701   -3.6937  -21.5617 H   0  0  0  0  0  0  0  0  0  0  0  0
   -6.7327   -2.4118  -22.8362 H   0  0  0  0  0  0  0  0  0  0  0  0
   -6.9037   -3.2044  -21.2573 H   0  0  0  0  0  0  0  0  0  0  0  0
  -11.2165   -3.7382  -21.2314 H   0  0  0  0  0  0  0  0  0  0  0  0
  -15.0355   -1.7815  -21.6951 H   0  0  0  0  0  0  0  0  0  0  0  0
  -13.9710   -0.1067  -23.1506 H   0  0  0  0  0  0  0  0  0  0  0  0
  1  2  2  0
  2  3  1  0
  3  4  2  0
  4  5  1  0
  5  6  2  0
  6  7  1  0
  6  8  1  0
  8  9  2  0
  9 10  1  0
 10 11  1  6
 11 12  1  0
 12 13  1  0
 13 14  1  0
 14 15  1  0
 15 16  1  0
 16 17  1  0
 17 18  1  0
 18 19  1  0
 19 20  1  0
 20 21  1  0
 20 22  1  0
 19 23  1  0
 19 24  1  0
 17 25  1  0
 17 26  1  0
 16 27  1  0
 16 28  1  0
 15 29  1  0
 14 30  1  0
 14 31  1  0
 13 32  1  0
 13 33  1  0
 11 34  1  0
 11 35  1  0
 10 36  1  0
 36 37  2  0
 36 38  1  0
 38 39  1  0
 39 40  2  0
 40 41  1  0
 41 42  2  0
 42 43  1  0
 43 44  2  0
 44 45  1  0
 45 46  2  0
 46 47  1  0
 47 48  2  0
 47 49  1  0
 46 50  1  0
 45 51  1  0
 44 52  1  0
 42 53  1  0
 40 54  1  0
 38 55  1  0
 55 56  1  0
 56 57  1  0
 57 58  1  0
 58 59  1  0
 59 60  2  0
 60 61  1  0
 61 62  2  0
 62 63  1  0
 63 64  2  0
 63 65  1  0
 62 66  1  0
 61 67  1  0
 58 68  1  0
 57 69  1  0
 57 70  1  0
 56 71  1  1
 55 72  1  0
 55 73  1  0
  8 74  1  0
  5 75  1  0
  4 76  1  0
 12  2  1  0
 20 15  1  0
 48 39  1  0
 64 59  1  0
  9  3  1  0
 56 10  1  0
 48 43  1  0
M  CHG  1  15   1
M  END
>  <cnnaffinities>  (13) 
[7.25038, 6.33059, 7.00488]

>  <score>  (13) 
7.25038

>  <index>  (13) 
12

>  <Smiles>  (13) 
O=C1c2c(c(c(Cl)c(c2[C@@]2(C(N1C(C([N+]1(C(C(OC(C1([H])[H])([H])[H])([H])[H])([H])[H])[H])([H])[H])([H])[H])([H])[H])C(=O)N(c1c(nc(c3c(c(c(c(c13)[H])[H])[H])[H])[H])[H])C([C@@]2(C(N(c1nc(c(c(n1)[H])[H])[H])[H])([H])[H])[H])([H])[H])[H])[H])[H]

>  <h>  (13) 
<NA>

>  <Training>  (13) 
True

>  <Success>  (13) 
True

>  <enamine_searched>  (13) 
False

>  <enamine_id>  (13) 
nan

$$$$

     RDKit          3D

 69 74  0  0  0  0  0  0  0  0999 V2000
   -6.7894    3.3596  -23.3746 C   0  0  0  0  0  0  0  0  0  0  0  0
   -7.5162    2.5493  -24.3304 N   0  0  0  0  0  0  0  0  0  0  0  0
   -6.9167    1.4935  -24.9196 C   0  0  0  0  0  0  0  0  0  0  0  0
   -5.7310    1.2237  -24.7621 O   0  0  0  0  0  0  0  0  0  0  0  0
   -7.8415    0.6303  -25.7893 C   0  0  0  0  0  0  0  0  0  0  0  0
   -8.8451   -0.0424  -24.9773 N   0  0  0  0  0  0  0  0  0  0  0  0
   -8.4939   -1.3208  -24.3714 C   0  0  0  0  0  0  0  0  0  0  0  0
   -9.0862   -1.4842  -22.9372 C   0  0  2  0  0  0  0  0  0  0  0  0
   -8.3118   -0.5461  -21.9805 C   0  0  0  0  0  0  0  0  0  0  0  0
   -8.4077    0.6592  -21.8921 O   0  0  0  0  0  0  0  0  0  0  0  0
   -7.4534   -1.3087  -21.2215 N   0  0  0  0  0  0  0  0  0  0  0  0
   -6.6527   -0.7717  -20.1923 C   0  0  0  0  0  0  0  0  0  0  0  0
   -6.9379   -1.0671  -18.8815 C   0  0  0  0  0  0  0  0  0  0  0  0
   -6.2510   -0.5878  -17.8170 N   0  0  0  0  0  0  0  0  0  0  0  0
   -5.2208    0.1840  -18.0819 C   0  0  0  0  0  0  0  0  0  0  0  0
   -4.7808    0.5170  -19.3957 C   0  0  0  0  0  0  0  0  0  0  0  0
   -3.6399    1.3348  -19.6186 C   0  0  0  0  0  0  0  0  0  0  0  0
   -3.2230    1.6169  -20.8914 C   0  0  0  0  0  0  0  0  0  0  0  0
   -3.9270    1.0972  -22.0027 C   0  0  0  0  0  0  0  0  0  0  0  0
   -5.0387    0.3122  -21.8162 C   0  0  0  0  0  0  0  0  0  0  0  0
   -5.5038    0.0159  -20.5010 C   0  0  0  0  0  0  0  0  0  0  0  0
   -5.5656   -0.0633  -22.6897 H   0  0  0  0  0  0  0  0  0  0  0  0
   -3.6149    1.3392  -23.0156 H   0  0  0  0  0  0  0  0  0  0  0  0
   -2.3545    2.2498  -21.0556 H   0  0  0  0  0  0  0  0  0  0  0  0
   -3.1167    1.7283  -18.7513 H   0  0  0  0  0  0  0  0  0  0  0  0
   -4.6673    0.5809  -17.2321 H   0  0  0  0  0  0  0  0  0  0  0  0
   -7.7914   -1.7059  -18.6523 H   0  0  0  0  0  0  0  0  0  0  0  0
   -7.4521   -2.7118  -21.5509 C   0  0  0  0  0  0  0  0  0  0  0  0
   -8.7595   -2.8719  -22.3200 C   0  0  2  0  0  0  0  0  0  0  0  0
   -8.7482   -4.0633  -23.2618 C   0  0  0  0  0  0  0  0  0  0  0  0
  -10.0268   -4.1970  -23.9105 N   0  0  0  0  0  0  0  0  0  0  0  0
  -10.1987   -5.0843  -24.9127 C   0  0  0  0  0  0  0  0  0  0  0  0
  -11.4210   -5.1535  -25.6035 C   0  0  0  0  0  0  0  0  0  0  0  0
  -11.4660   -6.0371  -26.6551 C   0  0  0  0  0  0  0  0  0  0  0  0
  -10.4409   -6.8252  -26.9946 N   0  0  0  0  0  0  0  0  0  0  0  0
   -9.3534   -6.7207  -26.2318 C   0  0  0  0  0  0  0  0  0  0  0  0
   -8.2473   -7.6688  -26.5573 C   0  0  0  0  0  0  0  0  0  0  0  0
   -7.6388   -7.8846  -25.6810 H   0  0  0  0  0  0  0  0  0  0  0  0
   -7.5913   -7.2855  -27.3436 H   0  0  0  0  0  0  0  0  0  0  0  0
   -8.7132   -8.5773  -26.9310 H   0  0  0  0  0  0  0  0  0  0  0  0
   -9.1569   -5.8676  -25.2220 N   0  0  0  0  0  0  0  0  0  0  0  0
  -12.3631   -6.1125  -27.2668 H   0  0  0  0  0  0  0  0  0  0  0  0
  -12.2732   -4.5464  -25.3089 H   0  0  0  0  0  0  0  0  0  0  0  0
  -10.8121   -3.6202  -23.6423 H   0  0  0  0  0  0  0  0  0  0  0  0
   -7.9661   -3.9392  -24.0242 H   0  0  0  0  0  0  0  0  0  0  0  0
   -8.5033   -4.9917  -22.7287 H   0  0  0  0  0  0  0  0  0  0  0  0
   -9.5195   -3.0470  -21.5595 H   0  0  0  0  0  0  0  0  0  0  0  0
   -6.5777   -2.9790  -22.1605 H   0  0  0  0  0  0  0  0  0  0  0  0
   -7.4233   -3.3184  -20.6410 H   0  0  0  0  0  0  0  0  0  0  0  0
  -10.5687   -1.1439  -22.9794 C   0  0  0  0  0  0  0  0  0  0  0  0
  -11.5402   -1.8005  -22.2015 C   0  0  0  0  0  0  0  0  0  0  0  0
  -12.8683   -1.4211  -22.2825 C   0  0  0  0  0  0  0  0  0  0  0  0
  -14.0614   -2.2751  -21.3345 Cl  0  0  0  0  0  0  0  0  0  0  0  0
  -13.2638   -0.3471  -23.0731 C   0  0  0  0  0  0  0  0  0  0  0  0
  -12.3080    0.3485  -23.7874 C   0  0  0  0  0  0  0  0  0  0  0  0
  -10.9853   -0.0892  -23.8050 C   0  0  0  0  0  0  0  0  0  0  0  0
  -10.0326    0.5898  -24.7472 C   0  0  0  0  0  0  0  0  0  0  0  0
  -10.3179    1.6655  -25.2727 O   0  0  0  0  0  0  0  0  0  0  0  0
  -12.5698    1.2304  -24.3624 H   0  0  0  0  0  0  0  0  0  0  0  0
  -14.3097   -0.0865  -23.1262 H   0  0  0  0  0  0  0  0  0  0  0  0
  -11.3017   -2.5940  -21.4993 H   0  0  0  0  0  0  0  0  0  0  0  0
   -7.3995   -1.3821  -24.3156 H   0  0  0  0  0  0  0  0  0  0  0  0
   -8.8489   -2.1341  -25.0183 H   0  0  0  0  0  0  0  0  0  0  0  0
   -7.2193   -0.0949  -26.3201 H   0  0  0  0  0  0  0  0  0  0  0  0
   -8.3721    1.2440  -26.5231 H   0  0  0  0  0  0  0  0  0  0  0  0
   -8.5249    2.6304  -24.3816 H   0  0  0  0  0  0  0  0  0  0  0  0
   -7.4539    4.1332  -22.9846 H   0  0  0  0  0  0  0  0  0  0  0  0
   -5.9266    3.8304  -23.8537 H   0  0  0  0  0  0  0  0  0  0  0  0
   -6.4124    2.7489  -22.5437 H   0  0  0  0  0  0  0  0  0  0  0  0
  1  2  1  0
  2  3  1  0
  3  4  2  0
  3  5  1  0
  5  6  1  0
  6  7  1  0
  8  7  1  6
  8  9  1  0
  9 10  2  0
  9 11  1  0
 11 12  1  0
 12 13  2  0
 13 14  1  0
 14 15  2  0
 15 16  1  0
 16 17  2  0
 17 18  1  0
 18 19  2  0
 19 20  1  0
 20 21  2  0
 20 22  1  0
 19 23  1  0
 18 24  1  0
 17 25  1  0
 15 26  1  0
 13 27  1  0
 11 28  1  0
 28 29  1  0
 29 30  1  0
 30 31  1  0
 31 32  1  0
 32 33  2  0
 33 34  1  0
 34 35  2  0
 35 36  1  0
 36 37  1  0
 37 38  1  0
 37 39  1  0
 37 40  1  0
 36 41  2  0
 34 42  1  0
 33 43  1  0
 31 44  1  0
 30 45  1  0
 30 46  1  0
 29 47  1  1
 28 48  1  0
 28 49  1  0
  8 50  1  0
 50 51  2  0
 51 52  1  0
 52 53  1  0
 52 54  2  0
 54 55  1  0
 55 56  2  0
 56 57  1  0
 57 58  2  0
 55 59  1  0
 54 60  1  0
 51 61  1  0
  7 62  1  0
  7 63  1  0
  5 64  1  0
  5 65  1  0
  2 66  1  0
  1 67  1  0
  1 68  1  0
  1 69  1  0
 57  6  1  0
 29  8  1  0
 41 32  1  0
 56 50  1  0
 21 12  1  0
 21 16  1  0
M  END
>  <cnnaffinities>  (14) 
[6.79591, 7.03987, 6.67978]

>  <score>  (14) 
6.79591

>  <index>  (14) 
13

>  <Smiles>  (14) 
C(N(C(=O)C(N1C([C@@]2(C(=O)N(c3c(nc(c4c(c(c(c(c34)[H])[H])[H])[H])[H])[H])C([C@@]2(C(N(c2c(c(nc(C([H])([H])[H])n2)[H])[H])[H])([H])[H])[H])([H])[H])c2c(c(Cl)c(c(c2C1=O)[H])[H])[H])([H])[H])([H])[H])[H])([H])([H])[H]

>  <h>  (14) 
<NA>

>  <Training>  (14) 
True

>  <Success>  (14) 
True

>  <enamine_searched>  (14) 
False

>  <enamine_id>  (14) 
nan

$$$$

     RDKit          3D

 73 78  0  0  0  0  0  0  0  0999 V2000
   -8.1000   -3.6209  -24.0472 C   0  0  0  0  0  0  0  0  0  0  0  0
   -8.4012   -2.7765  -22.8046 C   0  0  1  0  0  0  0  0  0  0  0  0
   -7.1671   -2.5966  -21.8932 C   0  0  0  0  0  0  0  0  0  0  0  0
   -7.4354   -1.3513  -21.1972 N   0  0  0  0  0  0  0  0  0  0  0  0
   -6.6107   -0.8020  -20.1747 C   0  0  0  0  0  0  0  0  0  0  0  0
   -6.9070   -1.0434  -18.8597 C   0  0  0  0  0  0  0  0  0  0  0  0
   -6.2033   -0.5543  -17.8052 N   0  0  0  0  0  0  0  0  0  0  0  0
   -5.1692    0.2079  -18.0748 C   0  0  0  0  0  0  0  0  0  0  0  0
   -4.7353    0.5360  -19.3921 C   0  0  0  0  0  0  0  0  0  0  0  0
   -3.6099    1.3717  -19.6363 C   0  0  0  0  0  0  0  0  0  0  0  0
   -3.2192    1.6615  -20.9154 C   0  0  0  0  0  0  0  0  0  0  0  0
   -3.9290    1.1215  -22.0101 C   0  0  0  0  0  0  0  0  0  0  0  0
   -5.0189    0.3099  -21.7995 C   0  0  0  0  0  0  0  0  0  0  0  0
   -5.4680    0.0061  -20.4839 C   0  0  0  0  0  0  0  0  0  0  0  0
   -5.5517   -0.1051  -22.6488 H   0  0  0  0  0  0  0  0  0  0  0  0
   -3.6179    1.3534  -23.0254 H   0  0  0  0  0  0  0  0  0  0  0  0
   -2.3677    2.3131  -21.0938 H   0  0  0  0  0  0  0  0  0  0  0  0
   -3.0783    1.7830  -18.7822 H   0  0  0  0  0  0  0  0  0  0  0  0
   -4.6178    0.6141  -17.2247 H   0  0  0  0  0  0  0  0  0  0  0  0
   -7.7598   -1.6678  -18.6038 H   0  0  0  0  0  0  0  0  0  0  0  0
   -8.4385   -0.5991  -21.7692 C   0  0  0  0  0  0  0  0  0  0  0  0
   -8.8283    0.4591  -21.3215 O   0  0  0  0  0  0  0  0  0  0  0  0
   -8.9388   -1.3302  -23.0443 C   0  0  1  0  0  0  0  0  0  0  0  0
   -8.2899   -0.6975  -24.3080 C   0  0  0  0  0  0  0  0  0  0  0  0
   -8.7208    0.6688  -24.5156 N   0  0  0  0  0  0  0  0  0  0  0  0
   -7.7450    1.7171  -24.7877 C   0  0  0  0  0  0  0  0  0  0  0  0
   -7.4365    2.5437  -23.5351 C   0  0  0  0  0  0  0  0  0  0  0  0
   -6.2814    3.4936  -23.7082 N   0  0  0  0  0  4  0  0  0  0  0  0
   -6.5495    4.5625  -24.7412 C   0  0  0  0  0  0  0  0  0  0  0  0
   -5.7355    5.8243  -24.4887 C   0  0  0  0  0  0  0  0  0  0  0  0
   -6.0324    6.4039  -23.1666 N   0  0  0  0  0  0  0  0  0  0  0  0
   -5.0162    7.6283  -22.6807 S   0  0  0  0  0  0  0  0  0  0  0  0
   -4.6520    8.3627  -23.8782 O   0  0  0  0  0  0  0  0  0  0  0  0
   -5.6267    8.2765  -21.5374 O   0  0  0  0  0  0  0  0  0  0  0  0
   -3.5393    6.8110  -22.0926 C   0  0  0  0  0  0  0  0  0  0  0  0
   -2.8376    7.6023  -21.8119 H   0  0  0  0  0  0  0  0  0  0  0  0
   -3.1136    6.2066  -22.8976 H   0  0  0  0  0  0  0  0  0  0  0  0
   -3.7863    6.2065  -21.2143 H   0  0  0  0  0  0  0  0  0  0  0  0
   -6.4681    5.4514  -22.1353 C   0  0  0  0  0  0  0  0  0  0  0  0
   -5.8304    4.0929  -22.3919 C   0  0  0  0  0  0  0  0  0  0  0  0
   -6.0759    3.3772  -21.6081 H   0  0  0  0  0  0  0  0  0  0  0  0
   -4.7407    4.2047  -22.4249 H   0  0  0  0  0  0  0  0  0  0  0  0
   -7.5592    5.3820  -22.1874 H   0  0  0  0  0  0  0  0  0  0  0  0
   -6.2150    5.8474  -21.1486 H   0  0  0  0  0  0  0  0  0  0  0  0
   -5.9670    6.5823  -25.2388 H   0  0  0  0  0  0  0  0  0  0  0  0
   -4.6660    5.5802  -24.5803 H   0  0  0  0  0  0  0  0  0  0  0  0
   -7.6216    4.7807  -24.7363 H   0  0  0  0  0  0  0  0  0  0  0  0
   -6.2800    4.1843  -25.7288 H   0  0  0  0  0  0  0  0  0  0  0  0
   -5.4795    2.9286  -24.0449 H   0  0  0  0  0  0  0  0  0  0  0  0
   -8.3280    3.1093  -23.2424 H   0  0  0  0  0  0  0  0  0  0  0  0
   -7.1852    1.8709  -22.7119 H   0  0  0  0  0  0  0  0  0  0  0  0
   -6.8232    1.2411  -25.1478 H   0  0  0  0  0  0  0  0  0  0  0  0
   -8.1418    2.3453  -25.5905 H   0  0  0  0  0  0  0  0  0  0  0  0
  -10.0463    0.9898  -24.4743 C   0  0  0  0  0  0  0  0  0  0  0  0
  -10.4796    2.0601  -24.8835 O   0  0  0  0  0  0  0  0  0  0  0  0
  -10.9588   -0.0480  -23.8654 C   0  0  0  0  0  0  0  0  0  0  0  0
  -12.3364    0.1623  -23.9361 C   0  0  0  0  0  0  0  0  0  0  0  0
  -13.2195   -0.7066  -23.3285 C   0  0  0  0  0  0  0  0  0  0  0  0
  -12.7039   -1.7765  -22.6002 C   0  0  0  0  0  0  0  0  0  0  0  0
  -13.8068   -2.8342  -21.7682 Cl  0  0  0  0  0  0  0  0  0  0  0  0
  -11.3417   -2.0004  -22.5069 C   0  0  0  0  0  0  0  0  0  0  0  0
  -10.4433   -1.1589  -23.1757 C   0  0  0  0  0  0  0  0  0  0  0  0
  -10.9992   -2.8204  -21.8845 H   0  0  0  0  0  0  0  0  0  0  0  0
  -14.2916   -0.5516  -23.3853 H   0  0  0  0  0  0  0  0  0  0  0  0
  -12.6970    1.0453  -24.4487 H   0  0  0  0  0  0  0  0  0  0  0  0
   -7.1998   -0.6924  -24.1996 H   0  0  0  0  0  0  0  0  0  0  0  0
   -8.5534   -1.3142  -25.1827 H   0  0  0  0  0  0  0  0  0  0  0  0
   -6.2384   -2.5468  -22.4858 H   0  0  0  0  0  0  0  0  0  0  0  0
   -7.0471   -3.4187  -21.1791 H   0  0  0  0  0  0  0  0  0  0  0  0
   -9.1599   -3.2949  -22.2118 H   0  0  0  0  0  0  0  0  0  0  0  0
   -7.8209   -4.6440  -23.7694 H   0  0  0  0  0  0  0  0  0  0  0  0
   -8.9630   -3.6822  -24.7194 H   0  0  0  0  0  0  0  0  0  0  0  0
   -7.2625   -3.2038  -24.6204 H   0  0  0  0  0  0  0  0  0  0  0  0
  1  2  1  0
  2  3  1  0
  3  4  1  0
  4  5  1  0
  5  6  2  0
  6  7  1  0
  7  8  2  0
  8  9  1  0
  9 10  2  0
 10 11  1  0
 11 12  2  0
 12 13  1  0
 13 14  2  0
 13 15  1  0
 12 16  1  0
 11 17  1  0
 10 18  1  0
  8 19  1  0
  6 20  1  0
  4 21  1  0
 21 22  2  0
 21 23  1  0
 23 24  1  6
 24 25  1  0
 25 26  1  0
 26 27  1  0
 27 28  1  0
 28 29  1  0
 29 30  1  0
 30 31  1  0
 31 32  1  0
 32 33  2  0
 32 34  2  0
 32 35  1  0
 35 36  1  0
 35 37  1  0
 35 38  1  0
 31 39  1  0
 39 40  1  0
 40 41  1  0
 40 42  1  0
 39 43  1  0
 39 44  1  0
 30 45  1  0
 30 46  1  0
 29 47  1  0
 29 48  1  0
 28 49  1  0
 27 50  1  0
 27 51  1  0
 26 52  1  0
 26 53  1  0
 25 54  1  0
 54 55  2  0
 54 56  1  0
 56 57  2  0
 57 58  1  0
 58 59  2  0
 59 60  1  0
 59 61  1  0
 61 62  2  0
 61 63  1  0
 58 64  1  0
 57 65  1  0
 24 66  1  0
 24 67  1  0
  3 68  1  0
  3 69  1  0
  2 70  1  1
  1 71  1  0
  1 72  1  0
  1 73  1  0
 23  2  1  0
 40 28  1  0
 62 56  1  0
 14  5  1  0
 62 23  1  0
 14  9  1  0
M  CHG  1  28   1
M  END
>  <cnnaffinities>  (15) 
[7.00999, 6.478]

>  <score>  (15) 
7.00999

>  <index>  (15) 
14

>  <Smiles>  (15) 
C([C@]1(C(N(c2c(nc(c3c(c(c(c(c23)[H])[H])[H])[H])[H])[H])C(=O)[C@]21C(N(C(C([N+]1(C(C(N(S(=O)(=O)C([H])([H])[H])C(C1([H])[H])([H])[H])([H])[H])([H])[H])[H])([H])[H])([H])[H])C(=O)c1c(c(c(Cl)c(c21)[H])[H])[H])([H])[H])([H])[H])[H])([H])([H])[H]

>  <h>  (15) 
<NA>

>  <Training>  (15) 
True

>  <Success>  (15) 
True

>  <enamine_searched>  (15) 
False

>  <enamine_id>  (15) 
nan

$$$$

     RDKit          3D

 63 68  0  0  0  0  0  0  0  0999 V2000
   -7.3854    3.3975  -21.8201 C   0  0  0  0  0  0  0  0  0  0  0  0
   -8.2493    2.9323  -22.8887 N   0  0  0  0  0  0  0  0  0  0  0  0
   -7.6758    2.2380  -23.8969 C   0  0  0  0  0  0  0  0  0  0  0  0
   -6.4591    2.1247  -24.0009 O   0  0  0  0  0  0  0  0  0  0  0  0
   -8.6185    1.6110  -24.9263 C   0  0  0  0  0  0  0  0  0  0  0  0
   -9.3417    0.4558  -24.4256 N   0  0  0  0  0  0  0  0  0  0  0  0
   -8.6293   -0.7986  -24.2557 C   0  0  0  0  0  0  0  0  0  0  0  0
   -9.0312   -1.5117  -22.9353 C   0  0  2  0  0  0  0  0  0  0  0  0
   -8.4890   -0.7171  -21.7162 C   0  0  0  0  0  0  0  0  0  0  0  0
   -8.9293    0.3168  -21.2571 O   0  0  0  0  0  0  0  0  0  0  0  0
   -7.3957   -1.3823  -21.2071 N   0  0  0  0  0  0  0  0  0  0  0  0
   -6.6027   -0.8106  -20.1749 C   0  0  0  0  0  0  0  0  0  0  0  0
   -6.9102   -1.0441  -18.8590 C   0  0  0  0  0  0  0  0  0  0  0  0
   -6.2123   -0.5501  -17.8050 N   0  0  0  0  0  0  0  0  0  0  0  0
   -5.1723    0.2060  -18.0734 C   0  0  0  0  0  0  0  0  0  0  0  0
   -4.7327    0.5299  -19.3898 C   0  0  0  0  0  0  0  0  0  0  0  0
   -3.6053    1.3637  -19.6361 C   0  0  0  0  0  0  0  0  0  0  0  0
   -3.2188    1.6529  -20.9164 C   0  0  0  0  0  0  0  0  0  0  0  0
   -3.9389    1.1239  -22.0109 C   0  0  0  0  0  0  0  0  0  0  0  0
   -5.0324    0.3181  -21.7989 C   0  0  0  0  0  0  0  0  0  0  0  0
   -5.4646    0.0030  -20.4815 C   0  0  0  0  0  0  0  0  0  0  0  0
   -5.5880   -0.0696  -22.6483 H   0  0  0  0  0  0  0  0  0  0  0  0
   -3.6452    1.3678  -23.0263 H   0  0  0  0  0  0  0  0  0  0  0  0
   -2.3656    2.3015  -21.0966 H   0  0  0  0  0  0  0  0  0  0  0  0
   -3.0718    1.7735  -18.7822 H   0  0  0  0  0  0  0  0  0  0  0  0
   -4.6221    0.6099  -17.2233 H   0  0  0  0  0  0  0  0  0  0  0  0
   -7.7624   -1.6709  -18.6070 H   0  0  0  0  0  0  0  0  0  0  0  0
   -7.0572   -2.6038  -21.9083 C   0  0  0  0  0  0  0  0  0  0  0  0
   -8.3040   -2.8830  -22.7700 C   0  0  2  0  0  0  0  0  0  0  0  0
   -7.9497   -3.6527  -24.0609 C   0  0  0  0  0  0  0  0  0  0  0  0
   -7.4474   -4.9925  -23.7864 N   0  0  0  0  0  0  0  0  0  0  0  0
   -8.1869   -6.0935  -23.5234 C   0  0  0  0  0  0  0  0  0  0  0  0
   -7.3088   -7.1125  -23.2324 C   0  0  0  0  0  0  0  0  0  0  0  0
   -6.0363   -6.5114  -23.3526 C   0  0  0  0  0  0  0  0  0  0  0  0
   -6.1326   -5.2282  -23.6824 N   0  0  0  0  0  0  0  0  0  0  0  0
   -5.0482   -6.9398  -23.2169 H   0  0  0  0  0  0  0  0  0  0  0  0
   -7.5505   -8.1365  -22.9785 H   0  0  0  0  0  0  0  0  0  0  0  0
   -9.2680   -6.0473  -23.5635 H   0  0  0  0  0  0  0  0  0  0  0  0
   -8.8366   -3.7687  -24.6959 H   0  0  0  0  0  0  0  0  0  0  0  0
   -7.1589   -3.1449  -24.6259 H   0  0  0  0  0  0  0  0  0  0  0  0
   -8.9840   -3.5233  -22.2030 H   0  0  0  0  0  0  0  0  0  0  0  0
   -6.1588   -2.4742  -22.5345 H   0  0  0  0  0  0  0  0  0  0  0  0
   -6.8438   -3.4105  -21.1983 H   0  0  0  0  0  0  0  0  0  0  0  0
  -10.5514   -1.5511  -22.8633 C   0  0  0  0  0  0  0  0  0  0  0  0
  -11.1948   -2.4197  -21.9714 C   0  0  0  0  0  0  0  0  0  0  0  0
  -12.5751   -2.4302  -21.8861 C   0  0  0  0  0  0  0  0  0  0  0  0
  -13.3666   -3.4975  -20.7630 Cl  0  0  0  0  0  0  0  0  0  0  0  0
  -13.3580   -1.5761  -22.6621 C   0  0  0  0  0  0  0  0  0  0  0  0
  -12.7302   -0.6616  -23.4842 C   0  0  0  0  0  0  0  0  0  0  0  0
  -11.3364   -0.6163  -23.5544 C   0  0  0  0  0  0  0  0  0  0  0  0
  -10.7000    0.5327  -24.2820 C   0  0  0  0  0  0  0  0  0  0  0  0
  -11.3521    1.4883  -24.6749 O   0  0  0  0  0  0  0  0  0  0  0  0
  -13.2951    0.0636  -24.0610 H   0  0  0  0  0  0  0  0  0  0  0  0
  -14.4381   -1.6125  -22.5757 H   0  0  0  0  0  0  0  0  0  0  0  0
  -10.6298   -3.0656  -21.3088 H   0  0  0  0  0  0  0  0  0  0  0  0
   -8.8320   -1.4723  -25.1049 H   0  0  0  0  0  0  0  0  0  0  0  0
   -7.5602   -0.5598  -24.2348 H   0  0  0  0  0  0  0  0  0  0  0  0
   -9.3899    2.3158  -25.2473 H   0  0  0  0  0  0  0  0  0  0  0  0
   -7.9844    1.3424  -25.7792 H   0  0  0  0  0  0  0  0  0  0  0  0
   -9.2470    2.8636  -22.7393 H   0  0  0  0  0  0  0  0  0  0  0  0
   -8.0075    3.8324  -21.0389 H   0  0  0  0  0  0  0  0  0  0  0  0
   -6.7855    2.5553  -21.4363 H   0  0  0  0  0  0  0  0  0  0  0  0
   -6.6941    4.1679  -22.1822 H   0  0  0  0  0  0  0  0  0  0  0  0
  1  2  1  0
  2  3  1  0
  3  4  2  0
  3  5  1  0
  5  6  1  0
  6  7  1  0
  8  7  1  6
  8  9  1  0
  9 10  2  0
  9 11  1  0
 11 12  1  0
 12 13  2  0
 13 14  1  0
 14 15  2  0
 15 16  1  0
 16 17  2  0
 17 18  1  0
 18 19  2  0
 19 20  1  0
 20 21  2  0
 20 22  1  0
 19 23  1  0
 18 24  1  0
 17 25  1  0
 15 26  1  0
 13 27  1  0
 11 28  1  0
 28 29  1  0
 29 30  1  0
 30 31  1  0
 31 32  1  0
 32 33  2  0
 33 34  1  0
 34 35  2  0
 34 36  1  0
 33 37  1  0
 32 38  1  0
 30 39  1  0
 30 40  1  0
 29 41  1  1
 28 42  1  0
 28 43  1  0
  8 44  1  0
 44 45  2  0
 45 46  1  0
 46 47  1  0
 46 48  2  0
 48 49  1  0
 49 50  2  0
 50 51  1  0
 51 52  2  0
 49 53  1  0
 48 54  1  0
 45 55  1  0
  7 56  1  0
  7 57  1  0
  5 58  1  0
  5 59  1  0
  2 60  1  0
  1 61  1  0
  1 62  1  0
  1 63  1  0
 51  6  1  0
 29  8  1  0
 35 31  1  0
 50 44  1  0
 21 12  1  0
 21 16  1  0
M  END
>  <cnnaffinities>  (16) 
[6.85968, 6.93482, 6.98162, 6.90806, 6.88936, 6.79147]

>  <score>  (16) 
6.85968

>  <index>  (16) 
15

>  <Smiles>  (16) 
C(N(C(=O)C(N1C([C@@]2(C(=O)N(c3c(nc(c4c(c(c(c(c34)[H])[H])[H])[H])[H])[H])C([C@@]2(C(n2c(c(c(n2)[H])[H])[H])([H])[H])[H])([H])[H])c2c(c(Cl)c(c(c2C1=O)[H])[H])[H])([H])[H])([H])[H])[H])([H])([H])[H]

>  <h>  (16) 
<NA>

>  <Training>  (16) 
True

>  <Success>  (16) 
True

>  <enamine_searched>  (16) 
False

>  <enamine_id>  (16) 
nan

$$$$

     RDKit          3D

 61 66  0  0  0  0  0  0  0  0999 V2000
   -7.3758    3.4047  -21.8239 C   0  0  0  0  0  0  0  0  0  0  0  0
   -8.2378    2.9403  -22.8941 N   0  0  0  0  0  0  0  0  0  0  0  0
   -7.6633    2.2440  -23.9008 C   0  0  0  0  0  0  0  0  0  0  0  0
   -6.4464    2.1299  -24.0036 O   0  0  0  0  0  0  0  0  0  0  0  0
   -8.6095    1.6186  -24.9294 C   0  0  0  0  0  0  0  0  0  0  0  0
   -9.3359    0.4640  -24.4318 N   0  0  0  0  0  0  0  0  0  0  0  0
   -8.6294   -0.7931  -24.2598 C   0  0  0  0  0  0  0  0  0  0  0  0
   -9.0338   -1.5014  -22.9368 C   0  0  2  0  0  0  0  0  0  0  0  0
   -8.4868   -0.7087  -21.7190 C   0  0  0  0  0  0  0  0  0  0  0  0
   -8.9174    0.3303  -21.2641 O   0  0  0  0  0  0  0  0  0  0  0  0
   -7.4007   -1.3830  -21.2048 N   0  0  0  0  0  0  0  0  0  0  0  0
   -6.6042   -0.8103  -20.1752 C   0  0  0  0  0  0  0  0  0  0  0  0
   -6.9102   -1.0434  -18.8594 C   0  0  0  0  0  0  0  0  0  0  0  0
   -6.2111   -0.5503  -17.8054 N   0  0  0  0  0  0  0  0  0  0  0  0
   -5.1716    0.2061  -18.0737 C   0  0  0  0  0  0  0  0  0  0  0  0
   -4.7326    0.5303  -19.3897 C   0  0  0  0  0  0  0  0  0  0  0  0
   -3.6052    1.3638  -19.6363 C   0  0  0  0  0  0  0  0  0  0  0  0
   -3.2182    1.6534  -20.9164 C   0  0  0  0  0  0  0  0  0  0  0  0
   -3.9382    1.1237  -22.0109 C   0  0  0  0  0  0  0  0  0  0  0  0
   -5.0319    0.3180  -21.7985 C   0  0  0  0  0  0  0  0  0  0  0  0
   -5.4656    0.0034  -20.4819 C   0  0  0  0  0  0  0  0  0  0  0  0
   -5.5870   -0.0707  -22.6479 H   0  0  0  0  0  0  0  0  0  0  0  0
   -3.6452    1.3673  -23.0264 H   0  0  0  0  0  0  0  0  0  0  0  0
   -2.3653    2.3021  -21.0970 H   0  0  0  0  0  0  0  0  0  0  0  0
   -3.0718    1.7741  -18.7824 H   0  0  0  0  0  0  0  0  0  0  0  0
   -4.6222    0.6101  -17.2231 H   0  0  0  0  0  0  0  0  0  0  0  0
   -7.7614   -1.6709  -18.6061 H   0  0  0  0  0  0  0  0  0  0  0  0
   -7.0688   -2.6050  -21.9081 C   0  0  0  0  0  0  0  0  0  0  0  0
   -8.3147   -2.8752  -22.7753 C   0  0  2  0  0  0  0  0  0  0  0  0
   -7.9555   -3.6329  -24.0711 C   0  0  0  0  0  0  0  0  0  0  0  0
   -7.4388   -4.9615  -23.7818 N   0  0  0  0  0  0  0  0  0  0  0  0
   -8.2114   -6.0039  -23.5332 N   0  0  0  0  0  0  0  0  0  0  0  0
   -7.3109   -6.9399  -23.2795 C   0  0  0  0  0  0  0  0  0  0  0  0
   -6.0451   -6.4797  -23.3705 N   0  0  0  0  0  0  0  0  0  0  0  0
   -6.1509   -5.2198  -23.6930 N   0  0  0  0  0  0  0  0  0  0  0  0
   -7.5669   -7.9589  -23.0232 H   0  0  0  0  0  0  0  0  0  0  0  0
   -8.8317   -3.7826  -24.7091 H   0  0  0  0  0  0  0  0  0  0  0  0
   -7.1646   -3.1225  -24.6313 H   0  0  0  0  0  0  0  0  0  0  0  0
   -8.9876   -3.5312  -22.2189 H   0  0  0  0  0  0  0  0  0  0  0  0
   -6.1654   -2.4822  -22.5290 H   0  0  0  0  0  0  0  0  0  0  0  0
   -6.8658   -3.4243  -21.2103 H   0  0  0  0  0  0  0  0  0  0  0  0
  -10.5519   -1.5342  -22.8650 C   0  0  0  0  0  0  0  0  0  0  0  0
  -11.1952   -2.3978  -21.9696 C   0  0  0  0  0  0  0  0  0  0  0  0
  -12.5749   -2.4048  -21.8822 C   0  0  0  0  0  0  0  0  0  0  0  0
  -13.3664   -3.4698  -20.7577 Cl  0  0  0  0  0  0  0  0  0  0  0  0
  -13.3569   -1.5496  -22.6576 C   0  0  0  0  0  0  0  0  0  0  0  0
  -12.7269   -0.6400  -23.4832 C   0  0  0  0  0  0  0  0  0  0  0  0
  -11.3337   -0.5987  -23.5582 C   0  0  0  0  0  0  0  0  0  0  0  0
  -10.6939    0.5451  -24.2898 C   0  0  0  0  0  0  0  0  0  0  0  0
  -11.3410    1.5024  -24.6883 O   0  0  0  0  0  0  0  0  0  0  0  0
  -13.2903    0.0847  -24.0605 H   0  0  0  0  0  0  0  0  0  0  0  0
  -14.4370   -1.5819  -22.5685 H   0  0  0  0  0  0  0  0  0  0  0  0
  -10.6288   -3.0429  -21.3072 H   0  0  0  0  0  0  0  0  0  0  0  0
   -8.8312   -1.4688  -25.1086 H   0  0  0  0  0  0  0  0  0  0  0  0
   -7.5596   -0.5581  -24.2378 H   0  0  0  0  0  0  0  0  0  0  0  0
   -9.3796    2.3239  -25.2550 H   0  0  0  0  0  0  0  0  0  0  0  0
   -7.9752    1.3498  -25.7814 H   0  0  0  0  0  0  0  0  0  0  0  0
   -9.2369    2.8770  -22.7493 H   0  0  0  0  0  0  0  0  0  0  0  0
   -6.7780    2.5618  -21.4355 H   0  0  0  0  0  0  0  0  0  0  0  0
   -6.6812    4.1746  -22.1831 H   0  0  0  0  0  0  0  0  0  0  0  0
   -8.0024    3.8436  -21.0478 H   0  0  0  0  0  0  0  0  0  0  0  0
  1  2  1  0
  2  3  1  0
  3  4  2  0
  3  5  1  0
  5  6  1  0
  6  7  1  0
  8  7  1  6
  8  9  1  0
  9 10  2  0
  9 11  1  0
 11 12  1  0
 12 13  2  0
 13 14  1  0
 14 15  2  0
 15 16  1  0
 16 17  2  0
 17 18  1  0
 18 19  2  0
 19 20  1  0
 20 21  2  0
 20 22  1  0
 19 23  1  0
 18 24  1  0
 17 25  1  0
 15 26  1  0
 13 27  1  0
 11 28  1  0
 28 29  1  0
 29 30  1  0
 30 31  1  0
 31 32  1  0
 32 33  2  0
 33 34  1  0
 34 35  2  0
 33 36  1  0
 30 37  1  0
 30 38  1  0
 29 39  1  1
 28 40  1  0
 28 41  1  0
  8 42  1  0
 42 43  2  0
 43 44  1  0
 44 45  1  0
 44 46  2  0
 46 47  1  0
 47 48  2  0
 48 49  1  0
 49 50  2  0
 47 51  1  0
 46 52  1  0
 43 53  1  0
  7 54  1  0
  7 55  1  0
  5 56  1  0
  5 57  1  0
  2 58  1  0
  1 59  1  0
  1 60  1  0
  1 61  1  0
 49  6  1  0
 29  8  1  0
 35 31  1  0
 48 42  1  0
 21 12  1  0
 21 16  1  0
M  END
>  <cnnaffinities>  (17) 
[6.75978, 6.73877, 6.85801, 6.83801, 6.68633]

>  <score>  (17) 
6.75978

>  <index>  (17) 
16

>  <Smiles>  (17) 
C(N(C(=O)C(N1C([C@@]2(C(=O)N(c3c(nc(c4c(c(c(c(c34)[H])[H])[H])[H])[H])[H])C([C@@]2(C(n2nc(nn2)[H])([H])[H])[H])([H])[H])c2c(c(Cl)c(c(c2C1=O)[H])[H])[H])([H])[H])([H])[H])[H])([H])([H])[H]

>  <h>  (17) 
<NA>

>  <Training>  (17) 
True

>  <Success>  (17) 
True

>  <enamine_searched>  (17) 
False

>  <enamine_id>  (17) 
nan

$$$$

     RDKit          3D

 38 41  0  0  0  0  0  0  0  0999 V2000
   -9.3481   -4.9442  -25.6907 C   0  0  0  0  0  0  0  0  0  0  0  0
   -9.3467   -4.1954  -24.3574 C   0  0  2  0  0  0  0  0  0  0  0  0
  -10.3482   -3.0414  -24.3809 C   0  0  0  0  0  0  0  0  0  0  0  0
  -10.4241   -2.3524  -23.0160 C   0  0  0  0  0  0  0  0  0  0  0  0
   -9.0854   -2.1150  -22.4685 C   0  0  0  0  0  0  0  0  0  0  0  0
   -8.7207   -1.1897  -21.4428 C   0  0  0  0  0  0  0  0  0  0  0  0
   -9.3826   -0.3217  -20.9200 O   0  0  0  0  0  1  0  0  0  0  0  0
   -7.3468   -1.4710  -21.1965 N   0  0  0  0  0  0  0  0  0  0  0  0
   -6.5724   -0.8442  -20.1811 C   0  0  0  0  0  0  0  0  0  0  0  0
   -6.8892   -1.0532  -18.8633 C   0  0  0  0  0  0  0  0  0  0  0  0
   -6.1994   -0.5453  -17.8093 N   0  0  0  0  0  0  0  0  0  0  0  0
   -5.1620    0.2121  -18.0731 C   0  0  0  0  0  0  0  0  0  0  0  0
   -4.7285    0.5316  -19.3886 C   0  0  0  0  0  0  0  0  0  0  0  0
   -3.6016    1.3667  -19.6262 C   0  0  0  0  0  0  0  0  0  0  0  0
   -3.2230    1.6695  -20.9055 C   0  0  0  0  0  0  0  0  0  0  0  0
   -3.9543    1.1577  -22.0009 C   0  0  0  0  0  0  0  0  0  0  0  0
   -5.0479    0.3539  -21.7975 C   0  0  0  0  0  0  0  0  0  0  0  0
   -5.4569    0.0036  -20.4832 C   0  0  0  0  0  0  0  0  0  0  0  0
   -5.6068   -0.0315  -22.6436 H   0  0  0  0  0  0  0  0  0  0  0  0
   -3.6547    1.4090  -23.0145 H   0  0  0  0  0  0  0  0  0  0  0  0
   -2.3678    2.3159  -21.0933 H   0  0  0  0  0  0  0  0  0  0  0  0
   -3.0589    1.7711  -18.7747 H   0  0  0  0  0  0  0  0  0  0  0  0
   -4.6112    0.6190  -17.2209 H   0  0  0  0  0  0  0  0  0  0  0  0
   -7.7397   -1.6749  -18.5985 H   0  0  0  0  0  0  0  0  0  0  0  0
   -6.8649   -2.4191  -22.1172 C   0  0  0  0  0  0  0  0  0  0  0  0
   -5.7299   -2.8160  -22.2350 O   0  0  0  0  0  0  0  0  0  0  0  0
   -7.9771   -2.7833  -22.8658 N   0  0  0  0  0  0  0  0  0  0  0  0
   -7.9458   -3.6820  -24.0087 C   0  0  0  0  0  0  0  0  0  0  0  0
   -7.2770   -4.4996  -23.7572 H   0  0  0  0  0  0  0  0  0  0  0  0
   -7.5085   -3.1773  -24.8747 H   0  0  0  0  0  0  0  0  0  0  0  0
  -10.9663   -1.4022  -23.0751 H   0  0  0  0  0  0  0  0  0  0  0  0
  -11.0049   -2.9665  -22.3110 H   0  0  0  0  0  0  0  0  0  0  0  0
  -10.0334   -2.3168  -25.1409 H   0  0  0  0  0  0  0  0  0  0  0  0
  -11.3404   -3.4068  -24.6767 H   0  0  0  0  0  0  0  0  0  0  0  0
   -9.6524   -4.9011  -23.5742 H   0  0  0  0  0  0  0  0  0  0  0  0
  -10.3419   -5.3465  -25.9217 H   0  0  0  0  0  0  0  0  0  0  0  0
   -8.6474   -5.7866  -25.6929 H   0  0  0  0  0  0  0  0  0  0  0  0
   -9.0722   -4.2812  -26.5201 H   0  0  0  0  0  0  0  0  0  0  0  0
  1  2  1  0
  2  3  1  0
  3  4  1  0
  4  5  1  0
  5  6  2  0
  6  7  1  0
  6  8  1  0
  8  9  1  0
  9 10  2  0
 10 11  1  0
 11 12  2  0
 12 13  1  0
 13 14  2  0
 14 15  1  0
 15 16  2  0
 16 17  1  0
 17 18  2  0
 17 19  1  0
 16 20  1  0
 15 21  1  0
 14 22  1  0
 12 23  1  0
 10 24  1  0
  8 25  1  0
 25 26  2  0
 25 27  1  0
 27 28  1  0
 28 29  1  0
 28 30  1  0
  4 31  1  0
  4 32  1  0
  3 33  1  0
  3 34  1  0
  2 35  1  1
  1 36  1  0
  1 37  1  0
  1 38  1  0
 28  2  1  0
 27  5  1  0
 18  9  1  0
 18 13  1  0
M  CHG  1   7  -1
M  END
>  <cnnaffinities>  (18) 
[5.37933, 5.18488, 5.35054, 5.28423, 5.22142, 5.32346]

>  <score>  (18) 
5.37933

>  <index>  (18) 
17

>  <Smiles>  (18) 
C([C@@]1(C(C(c2c([O-])n(c3c(nc(c4c(c(c(c(c34)[H])[H])[H])[H])[H])[H])c(=O)n2C1([H])[H])([H])[H])([H])[H])[H])([H])([H])[H]

>  <h>  (18) 
<NA>

>  <Training>  (18) 
True

>  <Success>  (18) 
True

>  <enamine_searched>  (18) 
False

>  <enamine_id>  (18) 
nan

$$$$

     RDKit          3D

 56 61  0  0  0  0  0  0  0  0999 V2000
  -10.2265   -2.9495  -22.0456 C   0  0  0  0  0  0  0  0  0  0  0  0
   -9.1616   -2.0078  -22.6315 C   0  0  1  0  0  0  0  0  0  0  0  0
   -8.6693   -1.0059  -21.5708 C   0  0  0  0  0  0  0  0  0  0  0  0
   -7.3556   -1.4848  -21.1917 N   0  0  0  0  0  0  0  0  0  0  0  0
   -6.5782   -0.8698  -20.1793 C   0  0  0  0  0  0  0  0  0  0  0  0
   -6.9201   -1.0559  -18.8707 C   0  0  0  0  0  0  0  0  0  0  0  0
   -6.2448   -0.5373  -17.8084 N   0  0  0  0  0  0  0  0  0  0  0  0
   -5.2004    0.2068  -18.0782 C   0  0  0  0  0  0  0  0  0  0  0  0
   -4.7531    0.5103  -19.3962 C   0  0  0  0  0  0  0  0  0  0  0  0
   -3.6253    1.3469  -19.6242 C   0  0  0  0  0  0  0  0  0  0  0  0
   -3.2386    1.6569  -20.8937 C   0  0  0  0  0  0  0  0  0  0  0  0
   -3.9606    1.1455  -22.0034 C   0  0  0  0  0  0  0  0  0  0  0  0
   -5.0438    0.3293  -21.8163 C   0  0  0  0  0  0  0  0  0  0  0  0
   -5.4620   -0.0237  -20.4952 C   0  0  0  0  0  0  0  0  0  0  0  0
   -5.5906   -0.0559  -22.6787 H   0  0  0  0  0  0  0  0  0  0  0  0
   -3.6473    1.4114  -23.0083 H   0  0  0  0  0  0  0  0  0  0  0  0
   -2.3837    2.3043  -21.0687 H   0  0  0  0  0  0  0  0  0  0  0  0
   -3.0944    1.7425  -18.7619 H   0  0  0  0  0  0  0  0  0  0  0  0
   -4.6476    0.6173  -17.2314 H   0  0  0  0  0  0  0  0  0  0  0  0
   -7.7787   -1.6793  -18.6217 H   0  0  0  0  0  0  0  0  0  0  0  0
   -6.8594   -2.4551  -22.0155 C   0  0  0  0  0  0  0  0  0  0  0  0
   -5.7810   -2.9940  -21.8599 O   0  0  0  0  0  0  0  0  0  0  0  0
   -7.8717   -2.7159  -23.1532 C   0  0  1  0  0  0  0  0  0  0  0  0
   -8.0700   -4.2371  -23.3415 C   0  0  0  0  0  0  0  0  0  0  0  0
   -6.9199   -4.8758  -23.9625 N   0  0  0  0  0  0  0  0  0  0  0  0
   -6.3335   -6.0993  -23.3791 C   0  0  0  0  0  0  0  0  0  0  0  0
   -5.1694   -5.8340  -22.6227 C   0  0  0  0  0  0  0  0  0  0  0  0
   -5.0215   -6.1462  -21.1210 C   0  0  0  0  0  0  0  0  0  0  0  0
   -5.0214   -6.1463  -21.1212 C   0  0  0  0  0  0  0  0  0  0  0  0
   -3.1397   -6.0401  -22.1830 N   0  0  0  0  0  0  0  0  0  0  0  0
   -3.9996   -5.8601  -23.0671 N   0  0  0  0  0  0  0  0  0  0  0  0
   -2.1982   -5.9213  -22.5957 H   0  0  0  0  0  0  0  0  0  0  0  0
   -5.2098   -5.8417  -19.8620 H   0  0  0  0  0  0  0  0  0  0  0  0
   -6.2204   -5.7510  -20.9554 H   0  0  0  0  0  0  0  0  0  0  0  0
   -6.1000   -6.7233  -24.2582 H   0  0  0  0  0  0  0  0  0  0  0  0
   -7.0787   -6.6567  -22.8122 H   0  0  0  0  0  0  0  0  0  0  0  0
   -6.3225   -4.3475  -25.0767 C   0  0  0  0  0  0  0  0  0  0  0  0
   -5.5523   -4.9830  -25.7854 O   0  0  0  0  0  0  0  0  0  0  0  0
   -6.6173   -2.9049  -25.3540 C   0  0  0  0  0  0  0  0  0  0  0  0
   -6.0842   -2.3573  -26.5214 C   0  0  0  0  0  0  0  0  0  0  0  0
   -6.2858   -1.0286  -26.8372 C   0  0  0  0  0  0  0  0  0  0  0  0
   -7.0119   -0.2550  -25.9398 C   0  0  0  0  0  0  0  0  0  0  0  0
   -7.2285    1.0411  -26.2405 F   0  0  0  0  0  0  0  0  0  0  0  0
   -7.5332   -0.7623  -24.7619 C   0  0  0  0  0  0  0  0  0  0  0  0
   -7.3529   -2.1202  -24.4561 C   0  0  0  0  0  0  0  0  0  0  0  0
   -8.0840   -0.0847  -24.1186 H   0  0  0  0  0  0  0  0  0  0  0  0
   -5.9037   -0.5820  -27.7482 H   0  0  0  0  0  0  0  0  0  0  0  0
   -5.5075   -3.0052  -27.1705 H   0  0  0  0  0  0  0  0  0  0  0  0
   -8.9654   -4.3892  -23.9508 H   0  0  0  0  0  0  0  0  0  0  0  0
   -8.2375   -4.7057  -22.3690 H   0  0  0  0  0  0  0  0  0  0  0  0
   -8.6299    0.0260  -21.9425 H   0  0  0  0  0  0  0  0  0  0  0  0
   -9.3301   -1.0007  -20.7053 H   0  0  0  0  0  0  0  0  0  0  0  0
   -9.6421   -1.4775  -23.4618 H   0  0  0  0  0  0  0  0  0  0  0  0
   -9.8319   -3.5336  -21.2069 H   0  0  0  0  0  0  0  0  0  0  0  0
  -10.5998   -3.6476  -22.7986 H   0  0  0  0  0  0  0  0  0  0  0  0
  -11.0857   -2.3776  -21.6805 H   0  0  0  0  0  0  0  0  0  0  0  0
  1  2  1  0
  2  3  1  0
  3  4  1  0
  4  5  1  0
  5  6  2  0
  6  7  1  0
  7  8  2  0
  8  9  1  0
  9 10  2  0
 10 11  1  0
 11 12  2  0
 12 13  1  0
 13 14  2  0
 13 15  1  0
 12 16  1  0
 11 17  1  0
 10 18  1  0
  8 19  1  0
  6 20  1  0
  4 21  1  0
 21 22  2  0
 21 23  1  0
 23 24  1  6
 24 25  1  0
 25 26  1  0
 26 27  1  0
 27 28  1  0
 28 29  2  0
 29 30  1  0
 30 31  1  0
 30 32  1  0
 29 33  1  0
 28 34  1  0
 26 35  1  0
 26 36  1  0
 25 37  1  0
 37 38  2  0
 37 39  1  0
 39 40  2  0
 40 41  1  0
 41 42  2  0
 42 43  1  0
 42 44  1  0
 44 45  2  0
 44 46  1  0
 41 47  1  0
 40 48  1  0
 24 49  1  0
 24 50  1  0
  3 51  1  0
  3 52  1  0
  2 53  1  6
  1 54  1  0
  1 55  1  0
  1 56  1  0
 23  2  1  0
 31 27  2  0
 45 39  1  0
 14  5  1  0
 45 23  1  0
 14  9  1  0
M  END
>  <cnnaffinities>  (19) 
[5.94903]

>  <score>  (19) 
5.94903

>  <index>  (19) 
18

>  <Smiles>  (19) 
C([C@]1(C(N(c2c(nc(c3c(c(c(c(c23)[H])[H])[H])[H])[H])[H])C(=O)[C@]21C(N(C(c1c(c(n(n1)[H])[H])[H])([H])[H])C(=O)c1c(c(c(F)c(c21)[H])[H])[H])([H])[H])([H])[H])[H])([H])([H])[H]

>  <h>  (19) 
<NA>

>  <Training>  (19) 
True

>  <Success>  (19) 
True

>  <enamine_searched>  (19) 
False

>  <enamine_id>  (19) 
nan

$$$$

     RDKit          3D

 42 45  0  0  0  0  0  0  0  0999 V2000
   -9.1438   -0.0672  -20.7324 O   0  0  0  0  0  0  0  0  0  0  0  0
   -8.6518   -0.9056  -21.4587 C   0  0  0  0  0  0  0  0  0  0  0  0
   -9.3534   -1.4979  -22.6897 C   0  0  1  0  0  0  0  0  0  0  0  0
  -10.4150   -0.5530  -23.2105 C   0  0  0  0  0  0  0  0  0  0  0  0
  -11.7284   -0.9617  -23.4383 C   0  0  0  0  0  0  0  0  0  0  0  0
  -12.6987   -0.0645  -23.8743 C   0  0  0  0  0  0  0  0  0  0  0  0
  -12.3744    1.2749  -24.0583 C   0  0  0  0  0  0  0  0  0  0  0  0
  -13.5989    2.4499  -24.3478 Cl  0  0  0  0  0  0  0  0  0  0  0  0
  -11.0368    1.6535  -23.9577 C   0  0  0  0  0  0  0  0  0  0  0  0
  -10.5352    3.2576  -24.3546 Cl  0  0  0  0  0  0  0  0  0  0  0  0
  -10.0713    0.7568  -23.5262 C   0  0  0  0  0  0  0  0  0  0  0  0
   -9.0562    1.1190  -23.3550 H   0  0  0  0  0  0  0  0  0  0  0  0
  -13.7119   -0.3945  -24.0625 H   0  0  0  0  0  0  0  0  0  0  0  0
  -12.0137   -1.9889  -23.2269 H   0  0  0  0  0  0  0  0  0  0  0  0
   -8.3183   -1.7893  -23.7779 C   0  0  0  0  0  0  0  0  0  0  0  0
   -7.2346   -2.7647  -23.3316 C   0  0  2  0  0  0  0  0  0  0  0  0
   -7.5399   -4.1133  -23.6529 O   0  0  0  0  0  0  0  0  0  0  0  0
   -8.3970   -4.3253  -23.2598 H   0  0  0  0  0  0  0  0  0  0  0  0
   -6.9352   -2.6389  -21.8320 C   0  0  0  0  0  0  0  0  0  0  0  0
   -7.3691   -1.3764  -21.2538 N   0  0  0  0  0  0  0  0  0  0  0  0
   -6.6086   -0.8060  -20.1923 C   0  0  0  0  0  0  0  0  0  0  0  0
   -6.9101   -1.0532  -18.8769 C   0  0  0  0  0  0  0  0  0  0  0  0
   -6.2077   -0.5621  -17.8223 N   0  0  0  0  0  0  0  0  0  0  0  0
   -5.1710    0.2027  -18.0781 C   0  0  0  0  0  0  0  0  0  0  0  0
   -4.7288    0.5241  -19.3929 C   0  0  0  0  0  0  0  0  0  0  0  0
   -3.6012    1.3548  -19.6350 C   0  0  0  0  0  0  0  0  0  0  0  0
   -3.2145    1.6398  -20.9160 C   0  0  0  0  0  0  0  0  0  0  0  0
   -3.9327    1.1054  -22.0101 C   0  0  0  0  0  0  0  0  0  0  0  0
   -5.0242    0.3011  -21.7985 C   0  0  0  0  0  0  0  0  0  0  0  0
   -5.4559   -0.0035  -20.4830 C   0  0  0  0  0  0  0  0  0  0  0  0
   -5.5855   -0.0980  -22.6355 H   0  0  0  0  0  0  0  0  0  0  0  0
   -3.6273    1.3462  -23.0234 H   0  0  0  0  0  0  0  0  0  0  0  0
   -2.3605    2.2866  -21.1040 H   0  0  0  0  0  0  0  0  0  0  0  0
   -3.0652    1.7682  -18.7843 H   0  0  0  0  0  0  0  0  0  0  0  0
   -4.6248    0.6092  -17.2249 H   0  0  0  0  0  0  0  0  0  0  0  0
   -7.7590   -1.6740  -18.5997 H   0  0  0  0  0  0  0  0  0  0  0  0
   -7.3932   -3.5100  -21.3346 H   0  0  0  0  0  0  0  0  0  0  0  0
   -5.8623   -2.7013  -21.6567 H   0  0  0  0  0  0  0  0  0  0  0  0
   -6.3315   -2.5660  -23.9124 H   0  0  0  0  0  0  0  0  0  0  0  0
   -8.8042   -2.2065  -24.6625 H   0  0  0  0  0  0  0  0  0  0  0  0
   -7.8756   -0.8356  -24.0891 H   0  0  0  0  0  0  0  0  0  0  0  0
   -9.8356   -2.4380  -22.3862 H   0  0  0  0  0  0  0  0  0  0  0  0
  1  2  2  0
  2  3  1  0
  3  4  1  0
  4  5  2  0
  5  6  1  0
  6  7  2  0
  7  8  1  0
  7  9  1  0
  9 10  1  0
  9 11  2  0
 11 12  1  0
  6 13  1  0
  5 14  1  0
  3 15  1  0
 15 16  1  0
 16 17  1  0
 17 18  1  0
 16 19  1  0
 19 20  1  0
 20 21  1  0
 21 22  2  0
 22 23  1  0
 23 24  2  0
 24 25  1  0
 25 26  2  0
 26 27  1  0
 27 28  2  0
 28 29  1  0
 29 30  2  0
 29 31  1  0
 28 32  1  0
 27 33  1  0
 26 34  1  0
 24 35  1  0
 22 36  1  0
 19 37  1  0
 19 38  1  0
 16 39  1  6
 15 40  1  0
 15 41  1  0
  3 42  1  1
 20  2  1  0
 30 21  1  0
 11  4  1  0
 30 25  1  0
M  END
>  <cnnaffinities>  (20) 
[5.71547, 5.25952]

>  <score>  (20) 
5.71547

>  <index>  (20) 
19

>  <Smiles>  (20) 
O=C1[C@@](c2c(c(c(Cl)c(Cl)c2[H])[H])[H])(C([C@](O[H])(C(N1c1c(nc(c2c(c(c(c(c12)[H])[H])[H])[H])[H])[H])([H])[H])[H])([H])[H])[H]

>  <h>  (20) 
<NA>

>  <Training>  (20) 
True

>  <Success>  (20) 
True

>  <enamine_searched>  (20) 
False

>  <enamine_id>  (20) 
nan

$$$$

     RDKit          3D

 66 71  0  0  0  0  0  0  0  0999 V2000
   -7.2022    2.9696  -22.8591 C   0  0  0  0  0  0  0  0  0  0  0  0
   -8.2793    2.2055  -23.4595 N   0  0  0  0  0  0  0  0  0  0  0  0
   -8.1484    1.5664  -24.6508 C   0  0  0  0  0  0  0  0  0  0  0  0
   -7.0874    1.4231  -25.2379 O   0  0  0  0  0  0  0  0  0  0  0  0
   -9.4797    1.0149  -25.1734 C   0  0  0  0  0  0  0  0  0  0  0  0
  -10.0149    0.0320  -24.2502 N   0  0  0  0  0  0  0  0  0  0  0  0
   -9.3109   -1.2294  -24.0958 C   0  0  0  0  0  0  0  0  0  0  0  0
   -9.5025   -1.8274  -22.6803 C   0  0  2  0  0  0  0  0  0  0  0  0
   -8.9223   -0.8591  -21.6046 C   0  0  0  0  0  0  0  0  0  0  0  0
   -9.4627    0.1185  -21.1221 O   0  0  0  0  0  0  0  0  0  0  0  0
   -7.6698   -1.3050  -21.2630 N   0  0  0  0  0  0  0  0  0  0  0  0
   -6.8984   -0.7354  -20.2241 C   0  0  0  0  0  0  0  0  0  0  0  0
   -7.2279   -0.9909  -18.9148 C   0  0  0  0  0  0  0  0  0  0  0  0
   -6.4983   -0.5826  -17.8477 N   0  0  0  0  0  0  0  0  0  0  0  0
   -5.4106    0.1101  -18.0947 C   0  0  0  0  0  0  0  0  0  0  0  0
   -4.9596    0.4569  -19.4020 C   0  0  0  0  0  0  0  0  0  0  0  0
   -3.7783    1.2204  -19.6182 C   0  0  0  0  0  0  0  0  0  0  0  0
   -3.3681    1.5163  -20.8882 C   0  0  0  0  0  0  0  0  0  0  0  0
   -4.1046    1.0618  -22.0028 C   0  0  0  0  0  0  0  0  0  0  0  0
   -5.2561    0.3271  -21.8203 C   0  0  0  0  0  0  0  0  0  0  0  0
   -5.7144    0.0130  -20.5121 C   0  0  0  0  0  0  0  0  0  0  0  0
   -5.8315    0.0124  -22.6849 H   0  0  0  0  0  0  0  0  0  0  0  0
   -3.7767    1.3062  -23.0087 H   0  0  0  0  0  0  0  0  0  0  0  0
   -2.4728    2.1120  -21.0492 H   0  0  0  0  0  0  0  0  0  0  0  0
   -3.2194    1.5621  -18.7506 H   0  0  0  0  0  0  0  0  0  0  0  0
   -4.8162    0.4294  -17.2369 H   0  0  0  0  0  0  0  0  0  0  0  0
   -8.1163   -1.5769  -18.6899 H   0  0  0  0  0  0  0  0  0  0  0  0
   -7.2591   -2.4703  -22.0076 C   0  0  0  0  0  0  0  0  0  0  0  0
   -8.5869   -3.0888  -22.4718 C   0  0  2  0  0  0  0  0  0  0  0  0
   -8.3977   -4.0563  -23.6625 C   0  0  0  0  0  0  0  0  0  0  0  0
   -7.4148   -5.2017  -23.4622 C   0  0  0  0  0  0  0  0  0  0  0  0
   -6.0331   -4.9964  -23.5812 C   0  0  0  0  0  0  0  0  0  0  0  0
   -5.1372   -6.0604  -23.5625 C   0  0  0  0  0  0  0  0  0  0  0  0
   -5.5940   -7.3629  -23.3845 C   0  0  0  0  0  0  0  0  0  0  0  0
   -6.9580   -7.5808  -23.2196 C   0  0  0  0  0  0  0  0  0  0  0  0
   -7.8511   -6.5115  -23.2501 C   0  0  0  0  0  0  0  0  0  0  0  0
   -8.9128   -6.7138  -23.1262 H   0  0  0  0  0  0  0  0  0  0  0  0
   -7.3417   -8.5916  -23.1020 H   0  0  0  0  0  0  0  0  0  0  0  0
   -4.8854   -8.1894  -23.3570 H   0  0  0  0  0  0  0  0  0  0  0  0
   -4.0775   -5.8716  -23.7189 H   0  0  0  0  0  0  0  0  0  0  0  0
   -5.6423   -3.9879  -23.7095 H   0  0  0  0  0  0  0  0  0  0  0  0
   -9.3788   -4.4599  -23.9419 H   0  0  0  0  0  0  0  0  0  0  0  0
   -8.0380   -3.4818  -24.5264 H   0  0  0  0  0  0  0  0  0  0  0  0
   -8.9859   -3.6580  -21.6260 H   0  0  0  0  0  0  0  0  0  0  0  0
   -6.6617   -3.1447  -21.3903 H   0  0  0  0  0  0  0  0  0  0  0  0
   -6.6482   -2.1812  -22.8773 H   0  0  0  0  0  0  0  0  0  0  0  0
  -11.0068   -1.9531  -22.4989 C   0  0  0  0  0  0  0  0  0  0  0  0
  -11.6085   -2.9480  -21.7262 C   0  0  0  0  0  0  0  0  0  0  0  0
  -12.9708   -2.8945  -21.4690 C   0  0  0  0  0  0  0  0  0  0  0  0
  -13.7134   -4.0337  -20.3945 Cl  0  0  0  0  0  0  0  0  0  0  0  0
  -13.7818   -1.8875  -21.9827 C   0  0  0  0  0  0  0  0  0  0  0  0
  -13.2015   -0.9057  -22.7482 C   0  0  0  0  0  0  0  0  0  0  0  0
  -11.8377   -0.9398  -23.0088 C   0  0  0  0  0  0  0  0  0  0  0  0
  -11.3106    0.1683  -23.8548 C   0  0  0  0  0  0  0  0  0  0  0  0
  -11.9937    1.1419  -24.1505 O   0  0  0  0  0  0  0  0  0  0  0  0
  -13.7740   -0.0737  -23.1431 H   0  0  0  0  0  0  0  0  0  0  0  0
  -14.8392   -1.8679  -21.7504 H   0  0  0  0  0  0  0  0  0  0  0  0
  -11.0098   -3.7323  -21.2826 H   0  0  0  0  0  0  0  0  0  0  0  0
   -8.2538   -1.0524  -24.3013 H   0  0  0  0  0  0  0  0  0  0  0  0
   -9.6858   -1.9588  -24.8280 H   0  0  0  0  0  0  0  0  0  0  0  0
   -9.3576    0.5984  -26.1789 H   0  0  0  0  0  0  0  0  0  0  0  0
  -10.2339    1.8089  -25.2327 H   0  0  0  0  0  0  0  0  0  0  0  0
   -9.1780    2.1716  -22.9988 H   0  0  0  0  0  0  0  0  0  0  0  0
   -7.5363    3.9872  -22.6310 H   0  0  0  0  0  0  0  0  0  0  0  0
   -6.3817    3.0000  -23.5840 H   0  0  0  0  0  0  0  0  0  0  0  0
   -6.8450    2.5105  -21.9281 H   0  0  0  0  0  0  0  0  0  0  0  0
  1  2  1  0
  2  3  1  0
  3  4  2  0
  3  5  1  0
  5  6  1  0
  6  7  1  0
  8  7  1  6
  8  9  1  0
  9 10  2  0
  9 11  1  0
 11 12  1  0
 12 13  2  0
 13 14  1  0
 14 15  2  0
 15 16  1  0
 16 17  2  0
 17 18  1  0
 18 19  2  0
 19 20  1  0
 20 21  2  0
 20 22  1  0
 19 23  1  0
 18 24  1  0
 17 25  1  0
 15 26  1  0
 13 27  1  0
 11 28  1  0
 28 29  1  0
 29 30  1  0
 30 31  1  0
 31 32  2  0
 32 33  1  0
 33 34  2  0
 34 35  1  0
 35 36  2  0
 36 37  1  0
 35 38  1  0
 34 39  1  0
 33 40  1  0
 32 41  1  0
 30 42  1  0
 30 43  1  0
 29 44  1  1
 28 45  1  0
 28 46  1  0
  8 47  1  0
 47 48  2  0
 48 49  1  0
 49 50  1  0
 49 51  2  0
 51 52  1  0
 52 53  2  0
 53 54  1  0
 54 55  2  0
 52 56  1  0
 51 57  1  0
 48 58  1  0
  7 59  1  0
  7 60  1  0
  5 61  1  0
  5 62  1  0
  2 63  1  0
  1 64  1  0
  1 65  1  0
  1 66  1  0
 54  6  1  0
 29  8  1  0
 36 31  1  0
 53 47  1  0
 21 12  1  0
 21 16  1  0
M  END
>  <cnnaffinities>  (21) 
[7.22684, 7.22525, 6.94579, 6.91456, 6.83126]

>  <score>  (21) 
7.22684

>  <index>  (21) 
20

>  <Smiles>  (21) 
C(N(C(=O)C(N1C([C@@]2(C(=O)N(c3c(nc(c4c(c(c(c(c34)[H])[H])[H])[H])[H])[H])C([C@@]2(C(c2c(c(c(c(c2[H])[H])[H])[H])[H])([H])[H])[H])([H])[H])c2c(c(Cl)c(c(c2C1=O)[H])[H])[H])([H])[H])([H])[H])[H])([H])([H])[H]

>  <h>  (21) 
<NA>

>  <Training>  (21) 
True

>  <Success>  (21) 
True

>  <enamine_searched>  (21) 
False

>  <enamine_id>  (21) 
nan

$$$$

     RDKit          3D

 63 68  0  0  0  0  0  0  0  0999 V2000
   -8.2810   -3.6238  -23.9521 C   0  0  0  0  0  0  0  0  0  0  0  0
   -8.4554   -2.8843  -22.6296 C   0  0  1  0  0  0  0  0  0  0  0  0
   -7.1203   -2.4434  -21.9937 C   0  0  0  0  0  0  0  0  0  0  0  0
   -7.5047   -1.2968  -21.1943 N   0  0  0  0  0  0  0  0  0  0  0  0
   -6.6953   -0.7444  -20.1646 C   0  0  0  0  0  0  0  0  0  0  0  0
   -6.9813   -1.0135  -18.8493 C   0  0  0  0  0  0  0  0  0  0  0  0
   -6.2609   -0.5537  -17.7962 N   0  0  0  0  0  0  0  0  0  0  0  0
   -5.2230    0.2069  -18.0645 C   0  0  0  0  0  0  0  0  0  0  0  0
   -4.7995    0.5542  -19.3794 C   0  0  0  0  0  0  0  0  0  0  0  0
   -3.6773    1.3930  -19.6250 C   0  0  0  0  0  0  0  0  0  0  0  0
   -3.3041    1.7031  -20.9062 C   0  0  0  0  0  0  0  0  0  0  0  0
   -4.0285    1.1862  -22.0023 C   0  0  0  0  0  0  0  0  0  0  0  0
   -5.1238    0.3793  -21.7926 C   0  0  0  0  0  0  0  0  0  0  0  0
   -5.5439    0.0475  -20.4741 C   0  0  0  0  0  0  0  0  0  0  0  0
   -5.7046    0.0357  -22.6429 H   0  0  0  0  0  0  0  0  0  0  0  0
   -3.7240    1.4274  -23.0166 H   0  0  0  0  0  0  0  0  0  0  0  0
   -2.4712    2.3805  -21.0874 H   0  0  0  0  0  0  0  0  0  0  0  0
   -3.1363    1.7893  -18.7710 H   0  0  0  0  0  0  0  0  0  0  0  0
   -4.6502    0.5879  -17.2167 H   0  0  0  0  0  0  0  0  0  0  0  0
   -7.8333   -1.6431  -18.5999 H   0  0  0  0  0  0  0  0  0  0  0  0
   -8.7247   -0.7546  -21.5447 C   0  0  0  0  0  0  0  0  0  0  0  0
   -9.2028    0.2438  -21.0489 O   0  0  0  0  0  0  0  0  0  0  0  0
   -9.3525   -1.6098  -22.6809 C   0  0  1  0  0  0  0  0  0  0  0  0
   -9.1872   -0.8599  -24.0383 C   0  0  0  0  0  0  0  0  0  0  0  0
  -10.0572    0.2980  -24.1654 N   0  0  0  0  0  0  0  0  0  0  0  0
   -9.5276    1.4789  -24.8294 C   0  0  0  0  0  0  0  0  0  0  0  0
   -8.3536    2.0253  -24.0103 C   0  0  0  0  0  0  0  0  0  0  0  0
   -7.1952    1.7175  -24.2592 O   0  0  0  0  0  0  0  0  0  0  0  0
   -8.6778    2.8338  -22.9585 N   0  0  0  0  0  0  0  0  0  0  0  0
   -7.6371    3.1425  -21.9876 C   0  0  0  0  0  0  0  0  0  0  0  0
   -6.6078    4.1606  -22.4130 C   0  0  0  0  0  0  0  0  0  0  0  0
   -6.4734    5.4112  -21.5868 C   0  0  0  0  0  0  0  0  0  0  0  0
   -5.4620    4.3086  -21.4561 C   0  0  0  0  0  0  0  0  0  0  0  0
   -4.4536    4.4493  -21.8326 H   0  0  0  0  0  0  0  0  0  0  0  0
   -5.5443    3.7072  -20.5560 H   0  0  0  0  0  0  0  0  0  0  0  0
   -7.1401    5.5916  -20.7444 H   0  0  0  0  0  0  0  0  0  0  0  0
   -6.1655    6.3208  -22.0839 H   0  0  0  0  0  0  0  0  0  0  0  0
   -6.4167    4.2441  -23.4741 H   0  0  0  0  0  0  0  0  0  0  0  0
   -8.0969    3.5649  -21.0955 H   0  0  0  0  0  0  0  0  0  0  0  0
   -7.1519    2.2017  -21.6889 H   0  0  0  0  0  0  0  0  0  0  0  0
   -9.6260    2.8227  -22.5995 H   0  0  0  0  0  0  0  0  0  0  0  0
  -10.3492    2.1968  -24.9098 H   0  0  0  0  0  0  0  0  0  0  0  0
   -9.1498    1.2402  -25.8320 H   0  0  0  0  0  0  0  0  0  0  0  0
  -11.3384    0.3171  -23.7047 C   0  0  0  0  0  0  0  0  0  0  0  0
  -12.1022    1.2475  -23.9241 O   0  0  0  0  0  0  0  0  0  0  0  0
  -11.7681   -0.8744  -22.9056 C   0  0  0  0  0  0  0  0  0  0  0  0
  -13.1278   -0.9597  -22.6068 C   0  0  0  0  0  0  0  0  0  0  0  0
  -13.6153   -1.9952  -21.8433 C   0  0  0  0  0  0  0  0  0  0  0  0
  -12.7098   -2.9426  -21.3852 C   0  0  0  0  0  0  0  0  0  0  0  0
  -13.1843   -3.8971  -20.5672 F   0  0  0  0  0  0  0  0  0  0  0  0
  -11.3594   -2.9000  -21.6911 C   0  0  0  0  0  0  0  0  0  0  0  0
  -10.8482   -1.8313  -22.4468 C   0  0  0  0  0  0  0  0  0  0  0  0
  -10.7209   -3.6806  -21.2899 H   0  0  0  0  0  0  0  0  0  0  0  0
  -14.6630   -2.0742  -21.5757 H   0  0  0  0  0  0  0  0  0  0  0  0
  -13.7823   -0.1818  -22.9834 H   0  0  0  0  0  0  0  0  0  0  0  0
   -8.1587   -0.5006  -24.1311 H   0  0  0  0  0  0  0  0  0  0  0  0
   -9.3926   -1.5458  -24.8702 H   0  0  0  0  0  0  0  0  0  0  0  0
   -6.3721   -2.1733  -22.7567 H   0  0  0  0  0  0  0  0  0  0  0  0
   -6.6736   -3.2256  -21.3677 H   0  0  0  0  0  0  0  0  0  0  0  0
   -8.9182   -3.5623  -21.9088 H   0  0  0  0  0  0  0  0  0  0  0  0
   -7.7200   -3.0139  -24.6705 H   0  0  0  0  0  0  0  0  0  0  0  0
   -9.2527   -3.8578  -24.4003 H   0  0  0  0  0  0  0  0  0  0  0  0
   -7.7313   -4.5612  -23.8209 H   0  0  0  0  0  0  0  0  0  0  0  0
  1  2  1  0
  2  3  1  0
  3  4  1  0
  4  5  1  0
  5  6  2  0
  6  7  1  0
  7  8  2  0
  8  9  1  0
  9 10  2  0
 10 11  1  0
 11 12  2  0
 12 13  1  0
 13 14  2  0
 13 15  1  0
 12 16  1  0
 11 17  1  0
 10 18  1  0
  8 19  1  0
  6 20  1  0
  4 21  1  0
 21 22  2  0
 21 23  1  0
 23 24  1  6
 24 25  1  0
 25 26  1  0
 26 27  1  0
 27 28  2  0
 27 29  1  0
 29 30  1  0
 30 31  1  0
 31 32  1  0
 32 33  1  0
 33 34  1  0
 33 35  1  0
 32 36  1  0
 32 37  1  0
 31 38  1  0
 30 39  1  0
 30 40  1  0
 29 41  1  0
 26 42  1  0
 26 43  1  0
 25 44  1  0
 44 45  2  0
 44 46  1  0
 46 47  2  0
 47 48  1  0
 48 49  2  0
 49 50  1  0
 49 51  1  0
 51 52  2  0
 51 53  1  0
 48 54  1  0
 47 55  1  0
 24 56  1  0
 24 57  1  0
  3 58  1  0
  3 59  1  0
  2 60  1  1
  1 61  1  0
  1 62  1  0
  1 63  1  0
 23  2  1  0
 33 31  1  0
 52 46  1  0
 14  5  1  0
 52 23  1  0
 14  9  1  0
M  END
>  <cnnaffinities>  (22) 
[6.69656]

>  <score>  (22) 
6.69656

>  <index>  (22) 
21

>  <Smiles>  (22) 
C([C@]1(C(N(c2c(nc(c3c(c(c(c(c23)[H])[H])[H])[H])[H])[H])C(=O)[C@]21C(N(C(C(=O)N(C(C1(C(C1([H])[H])([H])[H])[H])([H])[H])[H])([H])[H])C(=O)c1c(c(c(F)c(c21)[H])[H])[H])([H])[H])([H])[H])[H])([H])([H])[H]

>  <h>  (22) 
<NA>

>  <Training>  (22) 
True

>  <Success>  (22) 
True

>  <enamine_searched>  (22) 
False

>  <enamine_id>  (22) 
nan

$$$$

     RDKit          3D

 68 73  0  0  0  0  0  0  0  0999 V2000
   -7.3339    3.4546  -21.8700 C   0  0  0  0  0  0  0  0  0  0  0  0
   -8.2784    3.0152  -22.8801 N   0  0  0  0  0  0  0  0  0  0  0  0
   -7.7867    2.2396  -23.8909 C   0  0  0  0  0  0  0  0  0  0  0  0
   -6.5940    1.9940  -24.0196 O   0  0  0  0  0  0  0  0  0  0  0  0
   -8.8220    1.6761  -24.8592 C   0  0  0  0  0  0  0  0  0  0  0  0
   -9.5015    0.5462  -24.2682 N   0  0  0  0  0  0  0  0  0  0  0  0
   -8.7768   -0.7040  -24.1459 C   0  0  0  0  0  0  0  0  0  0  0  0
   -9.1447   -1.4552  -22.8459 C   0  0  2  0  0  0  0  0  0  0  0  0
   -8.5598   -0.6974  -21.6303 C   0  0  0  0  0  0  0  0  0  0  0  0
   -8.9806    0.3243  -21.1343 O   0  0  0  0  0  0  0  0  0  0  0  0
   -7.4416   -1.3732  -21.1960 N   0  0  0  0  0  0  0  0  0  0  0  0
   -6.6210   -0.8225  -20.1793 C   0  0  0  0  0  0  0  0  0  0  0  0
   -6.9397   -1.0477  -18.8658 C   0  0  0  0  0  0  0  0  0  0  0  0
   -6.2458   -0.5606  -17.8069 N   0  0  0  0  0  0  0  0  0  0  0  0
   -5.2021    0.1900  -18.0773 C   0  0  0  0  0  0  0  0  0  0  0  0
   -4.7631    0.5136  -19.3931 C   0  0  0  0  0  0  0  0  0  0  0  0
   -3.6367    1.3474  -19.6309 C   0  0  0  0  0  0  0  0  0  0  0  0
   -3.2492    1.6493  -20.9072 C   0  0  0  0  0  0  0  0  0  0  0  0
   -3.9692    1.1379  -22.0118 C   0  0  0  0  0  0  0  0  0  0  0  0
   -5.0644    0.3306  -21.8105 C   0  0  0  0  0  0  0  0  0  0  0  0
   -5.4887   -0.0077  -20.4945 C   0  0  0  0  0  0  0  0  0  0  0  0
   -5.6217   -0.0306  -22.6715 H   0  0  0  0  0  0  0  0  0  0  0  0
   -3.6642    1.3895  -23.0227 H   0  0  0  0  0  0  0  0  0  0  0  0
   -2.3878    2.2868  -21.0813 H   0  0  0  0  0  0  0  0  0  0  0  0
   -3.1000    1.7458  -18.7730 H   0  0  0  0  0  0  0  0  0  0  0  0
   -4.6328    0.5816  -17.2329 H   0  0  0  0  0  0  0  0  0  0  0  0
   -7.8104   -1.6545  -18.6296 H   0  0  0  0  0  0  0  0  0  0  0  0
   -7.1412   -2.5691  -21.9567 C   0  0  0  0  0  0  0  0  0  0  0  0
   -8.4326   -2.8327  -22.7456 C   0  0  2  0  0  0  0  0  0  0  0  0
   -8.1530   -3.5945  -24.0451 C   0  0  0  0  0  0  0  0  0  0  0  0
   -9.3556   -3.9433  -24.7505 N   0  0  0  0  0  0  0  0  0  0  0  0
   -9.3486   -4.5691  -25.9799 C   0  0  0  0  0  0  0  0  0  0  0  0
   -8.1592   -4.9502  -26.6239 C   0  0  0  0  0  0  0  0  0  0  0  0
   -8.2007   -5.5631  -27.8714 C   0  0  0  0  0  0  0  0  0  0  0  0
   -9.4080   -5.8381  -28.5013 C   0  0  0  0  0  0  0  0  0  0  0  0
  -10.5853   -5.4934  -27.8461 C   0  0  0  0  0  0  0  0  0  0  0  0
  -10.5655   -4.8530  -26.6179 C   0  0  0  0  0  0  0  0  0  0  0  0
  -11.5009   -4.5717  -26.1384 H   0  0  0  0  0  0  0  0  0  0  0  0
  -11.5389   -5.7518  -28.2908 H   0  0  0  0  0  0  0  0  0  0  0  0
   -9.4308   -6.3195  -29.4720 H   0  0  0  0  0  0  0  0  0  0  0  0
   -7.2663   -5.8448  -28.3483 H   0  0  0  0  0  0  0  0  0  0  0  0
   -7.1966   -4.7848  -26.1443 H   0  0  0  0  0  0  0  0  0  0  0  0
  -10.2534   -3.6971  -24.3671 H   0  0  0  0  0  0  0  0  0  0  0  0
   -7.4941   -2.9902  -24.6917 H   0  0  0  0  0  0  0  0  0  0  0  0
   -7.5863   -4.5083  -23.8074 H   0  0  0  0  0  0  0  0  0  0  0  0
   -9.0684   -3.4774  -22.1359 H   0  0  0  0  0  0  0  0  0  0  0  0
   -6.2894   -2.4138  -22.6388 H   0  0  0  0  0  0  0  0  0  0  0  0
   -6.8907   -3.3995  -21.2882 H   0  0  0  0  0  0  0  0  0  0  0  0
  -10.6546   -1.5067  -22.7407 C   0  0  0  0  0  0  0  0  0  0  0  0
  -11.2814   -2.4365  -21.9073 C   0  0  0  0  0  0  0  0  0  0  0  0
  -12.6552   -2.4142  -21.7615 C   0  0  0  0  0  0  0  0  0  0  0  0
  -13.3952   -3.5325  -20.6593 Cl  0  0  0  0  0  0  0  0  0  0  0  0
  -13.4579   -1.4836  -22.4196 C   0  0  0  0  0  0  0  0  0  0  0  0
  -12.8403   -0.5404  -23.2127 C   0  0  0  0  0  0  0  0  0  0  0  0
  -11.4552   -0.5290  -23.3458 C   0  0  0  0  0  0  0  0  0  0  0  0
  -10.8460    0.6290  -24.0606 C   0  0  0  0  0  0  0  0  0  0  0  0
  -11.5060    1.5986  -24.4075 O   0  0  0  0  0  0  0  0  0  0  0  0
  -13.4027    0.2324  -23.7216 H   0  0  0  0  0  0  0  0  0  0  0  0
  -14.5309   -1.4820  -22.2604 H   0  0  0  0  0  0  0  0  0  0  0  0
  -10.7101   -3.1477  -21.3197 H   0  0  0  0  0  0  0  0  0  0  0  0
   -9.0075   -1.3444  -25.0044 H   0  0  0  0  0  0  0  0  0  0  0  0
   -7.7029   -0.4889  -24.1680 H   0  0  0  0  0  0  0  0  0  0  0  0
   -8.2941    1.3616  -25.7659 H   0  0  0  0  0  0  0  0  0  0  0  0
   -9.5912    2.4148  -25.1090 H   0  0  0  0  0  0  0  0  0  0  0  0
   -9.2355    2.8741  -22.5768 H   0  0  0  0  0  0  0  0  0  0  0  0
   -6.7417    2.5979  -21.5133 H   0  0  0  0  0  0  0  0  0  0  0  0
   -7.8564    3.9385  -21.0391 H   0  0  0  0  0  0  0  0  0  0  0  0
   -6.6406    4.1803  -22.3036 H   0  0  0  0  0  0  0  0  0  0  0  0
  1  2  1  0
  2  3  1  0
  3  4  2  0
  3  5  1  0
  5  6  1  0
  6  7  1  0
  8  7  1  6
  8  9  1  0
  9 10  2  0
  9 11  1  0
 11 12  1  0
 12 13  2  0
 13 14  1  0
 14 15  2  0
 15 16  1  0
 16 17  2  0
 17 18  1  0
 18 19  2  0
 19 20  1  0
 20 21  2  0
 20 22  1  0
 19 23  1  0
 18 24  1  0
 17 25  1  0
 15 26  1  0
 13 27  1  0
 11 28  1  0
 28 29  1  0
 29 30  1  0
 30 31  1  0
 31 32  1  0
 32 33  2  0
 33 34  1  0
 34 35  2  0
 35 36  1  0
 36 37  2  0
 37 38  1  0
 36 39  1  0
 35 40  1  0
 34 41  1  0
 33 42  1  0
 31 43  1  0
 30 44  1  0
 30 45  1  0
 29 46  1  1
 28 47  1  0
 28 48  1  0
  8 49  1  0
 49 50  2  0
 50 51  1  0
 51 52  1  0
 51 53  2  0
 53 54  1  0
 54 55  2  0
 55 56  1  0
 56 57  2  0
 54 58  1  0
 53 59  1  0
 50 60  1  0
  7 61  1  0
  7 62  1  0
  5 63  1  0
  5 64  1  0
  2 65  1  0
  1 66  1  0
  1 67  1  0
  1 68  1  0
 56  6  1  0
 29  8  1  0
 37 32  1  0
 55 49  1  0
 21 12  1  0
 21 16  1  0
M  END
>  <cnnaffinities>  (23) 
[6.56003, 6.72819]

>  <score>  (23) 
6.56003

>  <index>  (23) 
23

>  <Smiles>  (23) 
C(N(C(=O)C(N1C([C@@]2(C(=O)N(c3c(nc(c4c(c(c(c(c34)[H])[H])[H])[H])[H])[H])C([C@@]2(C(N(c2c(c(c(c(c2[H])[H])[H])[H])[H])[H])([H])[H])[H])([H])[H])c2c(c(Cl)c(c(c2C1=O)[H])[H])[H])([H])[H])([H])[H])[H])([H])([H])[H]

>  <h>  (23) 
<NA>

>  <Training>  (23) 
True

>  <Success>  (23) 
True

>  <enamine_searched>  (23) 
False

>  <enamine_id>  (23) 
nan

$$$$

     RDKit          3D

 65 70  0  0  0  0  0  0  0  0999 V2000
   -6.0518   -7.6627  -25.3504 O   0  0  0  0  0  0  0  0  0  0  0  0
   -5.9950   -7.2604  -24.1980 C   0  0  0  0  0  0  0  0  0  0  0  0
   -7.1761   -6.6148  -23.4891 C   0  0  0  0  0  0  0  0  0  0  0  0
   -7.1103   -5.1313  -23.6936 N   0  0  1  0  0  4  0  0  0  0  0  0
   -7.2828   -4.8361  -25.1990 C   0  0  0  0  0  0  0  0  0  0  0  0
   -7.2110   -3.3642  -25.4752 C   0  0  0  0  0  0  0  0  0  0  0  0
   -6.8351   -2.9190  -26.7402 C   0  0  0  0  0  0  0  0  0  0  0  0
   -6.7565   -1.5661  -27.0358 C   0  0  0  0  0  0  0  0  0  0  0  0
   -7.0604   -0.6454  -26.0389 C   0  0  0  0  0  0  0  0  0  0  0  0
   -6.9516    1.0610  -26.3796 Cl  0  0  0  0  0  0  0  0  0  0  0  0
   -7.4485   -1.0674  -24.7775 C   0  0  0  0  0  0  0  0  0  0  0  0
   -7.5371   -2.4336  -24.4870 C   0  0  0  0  0  0  0  0  0  0  0  0
   -7.9463   -2.8484  -23.0855 C   0  0  2  0  0  0  0  0  0  0  0  0
   -9.1845   -2.1082  -22.5642 C   0  0  0  0  0  0  0  0  0  0  0  0
   -8.7143   -1.1450  -21.4701 C   0  0  0  0  0  0  0  0  0  0  0  0
   -7.3179   -1.4935  -21.2401 N   0  0  0  0  0  0  0  0  0  0  0  0
   -6.5524   -0.8930  -20.2014 C   0  0  0  0  0  0  0  0  0  0  0  0
   -6.8997   -1.0676  -18.8799 C   0  0  0  0  0  0  0  0  0  0  0  0
   -6.2283   -0.5414  -17.8239 N   0  0  0  0  0  0  0  0  0  0  0  0
   -5.1835    0.2070  -18.0885 C   0  0  0  0  0  0  0  0  0  0  0  0
   -4.7359    0.5115  -19.4064 C   0  0  0  0  0  0  0  0  0  0  0  0
   -3.6154    1.3551  -19.6336 C   0  0  0  0  0  0  0  0  0  0  0  0
   -3.2266    1.6615  -20.9084 C   0  0  0  0  0  0  0  0  0  0  0  0
   -3.9460    1.1470  -22.0110 C   0  0  0  0  0  0  0  0  0  0  0  0
   -5.0289    0.3251  -21.8203 C   0  0  0  0  0  0  0  0  0  0  0  0
   -5.4436   -0.0337  -20.5044 C   0  0  0  0  0  0  0  0  0  0  0  0
   -5.5759   -0.0523  -22.6830 H   0  0  0  0  0  0  0  0  0  0  0  0
   -3.6346    1.4025  -23.0192 H   0  0  0  0  0  0  0  0  0  0  0  0
   -2.3706    2.3080  -21.0826 H   0  0  0  0  0  0  0  0  0  0  0  0
   -3.0855    1.7562  -18.7723 H   0  0  0  0  0  0  0  0  0  0  0  0
   -4.6331    0.6129  -17.2381 H   0  0  0  0  0  0  0  0  0  0  0  0
   -7.7566   -1.6836  -18.6102 H   0  0  0  0  0  0  0  0  0  0  0  0
   -6.8417   -2.4635  -22.0968 C   0  0  0  0  0  0  0  0  0  0  0  0
   -5.7479   -2.9998  -22.0864 O   0  0  0  0  0  0  0  0  0  0  0  0
   -9.2953   -1.3265  -20.5742 H   0  0  0  0  0  0  0  0  0  0  0  0
   -8.8320   -0.0860  -21.7397 H   0  0  0  0  0  0  0  0  0  0  0  0
   -9.7367   -1.6131  -23.3668 H   0  0  0  0  0  0  0  0  0  0  0  0
   -9.8623   -2.8450  -22.1224 H   0  0  0  0  0  0  0  0  0  0  0  0
   -8.1725   -4.3626  -22.9504 C   0  0  0  0  0  0  0  0  0  0  0  0
   -8.1593   -4.6151  -21.8856 H   0  0  0  0  0  0  0  0  0  0  0  0
   -9.1524   -4.6282  -23.3617 H   0  0  0  0  0  0  0  0  0  0  0  0
   -7.6767   -0.3191  -24.0216 H   0  0  0  0  0  0  0  0  0  0  0  0
   -6.4574   -1.2218  -28.0195 H   0  0  0  0  0  0  0  0  0  0  0  0
   -6.5892   -3.6491  -27.5079 H   0  0  0  0  0  0  0  0  0  0  0  0
   -6.5217   -5.3826  -25.7502 H   0  0  0  0  0  0  0  0  0  0  0  0
   -8.2498   -5.2587  -25.5065 H   0  0  0  0  0  0  0  0  0  0  0  0
   -6.1872   -4.7464  -23.3649 H   0  0  0  0  0  0  0  0  0  0  0  0
   -8.0965   -7.0232  -23.9151 H   0  0  0  0  0  0  0  0  0  0  0  0
   -7.1919   -6.8494  -22.4264 H   0  0  0  0  0  0  0  0  0  0  0  0
   -4.8480   -7.2989  -23.4776 N   0  0  0  0  0  0  0  0  0  0  0  0
   -3.6961   -7.9496  -24.0684 C   0  0  0  0  0  0  0  0  0  0  0  0
   -2.4233   -7.6160  -23.3119 C   0  0  1  0  0  0  0  0  0  0  0  0
   -1.1179   -8.1156  -23.9930 C   0  0  0  0  0  0  0  0  0  0  0  0
   -0.6429   -6.6566  -24.1659 C   0  0  1  0  0  0  0  0  0  0  0  0
   -0.5414   -6.2590  -25.4929 F   0  0  0  0  0  0  0  0  0  0  0  0
   -1.9243   -6.1471  -23.4722 C   0  0  0  0  0  0  0  0  0  0  0  0
   -1.7796   -5.5910  -22.5382 H   0  0  0  0  0  0  0  0  0  0  0  0
   -2.5388   -5.5243  -24.1344 H   0  0  0  0  0  0  0  0  0  0  0  0
    0.3129   -6.3947  -23.6956 H   0  0  0  0  0  0  0  0  0  0  0  0
   -1.2679   -8.6406  -24.9445 H   0  0  0  0  0  0  0  0  0  0  0  0
   -0.4789   -8.7516  -23.3714 H   0  0  0  0  0  0  0  0  0  0  0  0
   -2.5420   -7.9449  -22.2665 H   0  0  0  0  0  0  0  0  0  0  0  0
   -3.8753   -9.0345  -24.0934 H   0  0  0  0  0  0  0  0  0  0  0  0
   -3.6424   -7.6165  -25.1137 H   0  0  0  0  0  0  0  0  0  0  0  0
   -4.7960   -6.7864  -22.6131 H   0  0  0  0  0  0  0  0  0  0  0  0
  1  2  2  0
  2  3  1  0
  3  4  1  0
  4  5  1  0
  5  6  1  0
  6  7  2  0
  7  8  1  0
  8  9  2  0
  9 10  1  0
  9 11  1  0
 11 12  2  0
 12 13  1  0
 13 14  1  1
 14 15  1  0
 15 16  1  0
 16 17  1  0
 17 18  2  0
 18 19  1  0
 19 20  2  0
 20 21  1  0
 21 22  2  0
 22 23  1  0
 23 24  2  0
 24 25  1  0
 25 26  2  0
 25 27  1  0
 24 28  1  0
 23 29  1  0
 22 30  1  0
 20 31  1  0
 18 32  1  0
 16 33  1  0
 33 34  2  0
 15 35  1  0
 15 36  1  0
 14 37  1  0
 14 38  1  0
 13 39  1  0
 39 40  1  0
 39 41  1  0
 11 42  1  0
  8 43  1  0
  7 44  1  0
  5 45  1  0
  5 46  1  0
  4 47  1  1
  3 48  1  0
  3 49  1  0
  2 50  1  0
 50 51  1  0
 51 52  1  0
 52 53  1  0
 53 54  1  0
 54 55  1  0
 54 56  1  0
 56 57  1  0
 56 58  1  0
 54 59  1  1
 53 60  1  0
 53 61  1  0
 52 62  1  1
 51 63  1  0
 51 64  1  0
 50 65  1  0
 39  4  1  0
 56 52  1  0
 12  6  1  0
 33 13  1  0
 26 17  1  0
 26 21  1  0
M  CHG  1   4   1
M  END
>  <cnnaffinities>  (24) 
[6.41983, 6.04117, 6.33289, 6.00923]

>  <score>  (24) 
6.41983

>  <index>  (24) 
24

>  <Smiles>  (24) 
O=C(C([N@+]1(C(c2c(c(c(Cl)c(c2[C@@]2(C(C(N(c3c(nc(c4c(c(c(c(c34)[H])[H])[H])[H])[H])[H])C2=O)([H])[H])([H])[H])C1([H])[H])[H])[H])[H])([H])[H])[H])([H])[H])N(C([C@]1(C([C@@](F)(C1([H])[H])[H])([H])[H])[H])([H])[H])[H]

>  <h>  (24) 
<NA>

>  <Training>  (24) 
True

>  <Success>  (24) 
True

>  <enamine_searched>  (24) 
False

>  <enamine_id>  (24) 
nan

$$$$

     RDKit          3D

 70 75  0  0  0  0  0  0  0  0999 V2000
   -5.1507   -1.4039  -25.2686 O   0  0  0  0  0  0  0  0  0  0  0  0
   -5.7283   -2.1358  -26.0619 C   0  0  0  0  0  0  0  0  0  0  0  0
   -6.3422   -3.4042  -25.4896 C   0  0  0  0  0  0  0  0  0  0  0  0
   -7.2549   -2.8723  -24.4256 N   0  0  1  0  0  4  0  0  0  0  0  0
   -8.3661   -2.0514  -25.0851 C   0  0  0  0  0  0  0  0  0  0  0  0
   -9.3775   -1.5187  -24.1014 C   0  0  0  0  0  0  0  0  0  0  0  0
  -10.2312   -0.5015  -24.5258 C   0  0  0  0  0  0  0  0  0  0  0  0
  -11.4188   -0.2426  -23.8612 C   0  0  0  0  0  0  0  0  0  0  0  0
  -11.7208   -0.9961  -22.7320 C   0  0  0  0  0  0  0  0  0  0  0  0
  -13.3174   -0.8772  -22.0638 Cl  0  0  0  0  0  0  0  0  0  0  0  0
  -10.7980   -1.8829  -22.1897 C   0  0  0  0  0  0  0  0  0  0  0  0
   -9.6023   -2.1457  -22.8750 C   0  0  0  0  0  0  0  0  0  0  0  0
   -8.5999   -3.1623  -22.3601 C   0  0  2  0  0  0  0  0  0  0  0  0
   -7.5243   -2.6464  -21.4035 C   0  0  0  0  0  0  0  0  0  0  0  0
   -6.8229   -3.4244  -20.7772 O   0  0  0  0  0  0  0  0  0  0  0  0
   -7.3512   -1.2978  -21.2954 N   0  0  0  0  0  0  0  0  0  0  0  0
   -6.5898   -0.7607  -20.2346 C   0  0  0  0  0  0  0  0  0  0  0  0
   -6.9116   -1.0405  -18.9323 C   0  0  0  0  0  0  0  0  0  0  0  0
   -6.2517   -0.5456  -17.8583 N   0  0  0  0  0  0  0  0  0  0  0  0
   -5.2192    0.2314  -18.0980 C   0  0  0  0  0  0  0  0  0  0  0  0
   -4.7609    0.5746  -19.4031 C   0  0  0  0  0  0  0  0  0  0  0  0
   -3.6164    1.3830  -19.6287 C   0  0  0  0  0  0  0  0  0  0  0  0
   -3.2015    1.6451  -20.9054 C   0  0  0  0  0  0  0  0  0  0  0  0
   -3.8916    1.1114  -22.0202 C   0  0  0  0  0  0  0  0  0  0  0  0
   -5.0020    0.3258  -21.8324 C   0  0  0  0  0  0  0  0  0  0  0  0
   -5.4624    0.0605  -20.5159 C   0  0  0  0  0  0  0  0  0  0  0  0
   -5.5199   -0.1050  -22.6883 H   0  0  0  0  0  0  0  0  0  0  0  0
   -3.5385    1.3116  -23.0269 H   0  0  0  0  0  0  0  0  0  0  0  0
   -2.3234    2.2587  -21.0798 H   0  0  0  0  0  0  0  0  0  0  0  0
   -3.0760    1.7755  -18.7717 H   0  0  0  0  0  0  0  0  0  0  0  0
   -4.6796    0.6158  -17.2329 H   0  0  0  0  0  0  0  0  0  0  0  0
   -7.7481   -1.7019  -18.7142 H   0  0  0  0  0  0  0  0  0  0  0  0
   -7.9372   -0.6788  -21.8364 H   0  0  0  0  0  0  0  0  0  0  0  0
   -7.8638   -3.8854  -23.5017 C   0  0  0  0  0  0  0  0  0  0  0  0
   -8.5695   -4.5004  -24.0720 H   0  0  0  0  0  0  0  0  0  0  0  0
   -7.0822   -4.5320  -23.0924 H   0  0  0  0  0  0  0  0  0  0  0  0
   -9.1335   -3.9074  -21.7664 H   0  0  0  0  0  0  0  0  0  0  0  0
  -11.0167   -2.3733  -21.2461 H   0  0  0  0  0  0  0  0  0  0  0  0
  -12.1242    0.4877  -24.2457 H   0  0  0  0  0  0  0  0  0  0  0  0
   -9.9891    0.0570  -25.4284 H   0  0  0  0  0  0  0  0  0  0  0  0
   -8.8642   -2.7168  -25.8083 H   0  0  0  0  0  0  0  0  0  0  0  0
   -7.9112   -1.2267  -25.6358 H   0  0  0  0  0  0  0  0  0  0  0  0
   -6.6354   -2.2036  -23.9072 H   0  0  0  0  0  0  0  0  0  0  0  0
   -6.8863   -3.9884  -26.2332 H   0  0  0  0  0  0  0  0  0  0  0  0
   -5.5687   -4.0302  -25.0413 H   0  0  0  0  0  0  0  0  0  0  0  0
   -6.0485   -1.8212  -27.3520 N   0  0  0  0  0  0  0  0  0  0  0  0
   -5.8907   -0.5535  -27.9573 C   0  0  0  0  0  0  0  0  0  0  0  0
   -5.6833    0.5946  -27.1918 C   0  0  0  0  0  0  0  0  0  0  0  0
   -5.4728    1.8070  -27.8239 C   0  0  0  0  0  0  0  0  0  0  0  0
   -5.4871    1.8957  -29.2135 C   0  0  0  0  0  0  0  0  0  0  0  0
   -5.2840    3.1540  -29.8435 N   0  0  0  0  0  0  0  0  0  0  0  0
   -6.3859    3.7035  -30.6231 C   0  0  0  0  0  0  0  0  0  0  0  0
   -5.8949    4.8879  -31.4320 C   0  0  0  0  0  0  0  0  0  0  0  0
   -5.2066    5.7894  -30.5944 O   0  0  0  0  0  0  0  0  0  0  0  0
   -4.0040    5.2419  -30.1221 C   0  0  0  0  0  0  0  0  0  0  0  0
   -4.1643    3.8664  -29.4882 C   0  0  0  0  0  0  0  0  0  0  0  0
   -3.3087    3.4264  -28.7406 O   0  0  0  0  0  0  0  0  0  0  0  0
   -3.6019    5.9148  -29.3596 H   0  0  0  0  0  0  0  0  0  0  0  0
   -3.2551    5.1495  -30.9267 H   0  0  0  0  0  0  0  0  0  0  0  0
   -5.2414    4.5553  -32.2522 H   0  0  0  0  0  0  0  0  0  0  0  0
   -6.7453    5.4303  -31.8543 H   0  0  0  0  0  0  0  0  0  0  0  0
   -7.1999    4.0167  -29.9548 H   0  0  0  0  0  0  0  0  0  0  0  0
   -6.7820    2.9266  -31.2871 H   0  0  0  0  0  0  0  0  0  0  0  0
   -5.7315    0.7557  -29.9764 C   0  0  0  0  0  0  0  0  0  0  0  0
   -5.9368   -0.4681  -29.3531 C   0  0  0  0  0  0  0  0  0  0  0  0
   -6.1264   -1.3567  -29.9520 H   0  0  0  0  0  0  0  0  0  0  0  0
   -5.7333    0.8267  -31.0620 H   0  0  0  0  0  0  0  0  0  0  0  0
   -5.2705    2.6897  -27.2248 H   0  0  0  0  0  0  0  0  0  0  0  0
   -5.6537    0.5297  -26.1106 H   0  0  0  0  0  0  0  0  0  0  0  0
   -6.6672   -2.4598  -27.8358 H   0  0  0  0  0  0  0  0  0  0  0  0
  1  2  2  0
  2  3  1  0
  3  4  1  0
  4  5  1  0
  5  6  1  0
  6  7  2  0
  7  8  1  0
  8  9  2  0
  9 10  1  0
  9 11  1  0
 11 12  2  0
 12 13  1  0
 13 14  1  0
 14 15  2  0
 14 16  1  0
 16 17  1  0
 17 18  2  0
 18 19  1  0
 19 20  2  0
 20 21  1  0
 21 22  2  0
 22 23  1  0
 23 24  2  0
 24 25  1  0
 25 26  2  0
 25 27  1  0
 24 28  1  0
 23 29  1  0
 22 30  1  0
 20 31  1  0
 18 32  1  0
 16 33  1  0
 13 34  1  0
 34 35  1  0
 34 36  1  0
 13 37  1  1
 11 38  1  0
  8 39  1  0
  7 40  1  0
  5 41  1  0
  5 42  1  0
  4 43  1  1
  3 44  1  0
  3 45  1  0
  2 46  1  0
 46 47  1  0
 47 48  2  0
 48 49  1  0
 49 50  2  0
 50 51  1  0
 51 52  1  0
 52 53  1  0
 53 54  1  0
 54 55  1  0
 55 56  1  0
 56 57  2  0
 55 58  1  0
 55 59  1  0
 53 60  1  0
 53 61  1  0
 52 62  1  0
 52 63  1  0
 50 64  1  0
 64 65  2  0
 65 66  1  0
 64 67  1  0
 49 68  1  0
 48 69  1  0
 46 70  1  0
 34  4  1  0
 65 47  1  0
 12  6  1  0
 26 17  1  0
 56 51  1  0
 26 21  1  0
M  CHG  1   4   1
M  END
>  <cnnaffinities>  (25) 
[5.83411]

>  <score>  (25) 
5.83411

>  <index>  (25) 
25

>  <Smiles>  (25) 
O=C(C([N@+]1(C(c2c(c(c(Cl)c(c2[C@](C(=O)N(c2c(nc(c3c(c(c(c(c23)[H])[H])[H])[H])[H])[H])[H])(C1([H])[H])[H])[H])[H])[H])([H])[H])[H])([H])[H])N(c1c(c(c(N2C(C(OC(C2=O)([H])[H])([H])[H])([H])[H])c(c1[H])[H])[H])[H])[H]

>  <h>  (25) 
<NA>

>  <Training>  (25) 
True

>  <Success>  (25) 
True

>  <enamine_searched>  (25) 
False

>  <enamine_id>  (25) 
nan

$$$$

     RDKit          3D

 55 60  0  0  0  0  0  0  0  0999 V2000
  -10.2170   -2.9587  -22.0673 C   0  0  0  0  0  0  0  0  0  0  0  0
   -9.1453   -2.0204  -22.6441 C   0  0  1  0  0  0  0  0  0  0  0  0
   -8.6803   -1.0107  -21.5695 C   0  0  0  0  0  0  0  0  0  0  0  0
   -7.3625   -1.4547  -21.1965 N   0  0  0  0  0  0  0  0  0  0  0  0
   -6.5823   -0.8509  -20.1832 C   0  0  0  0  0  0  0  0  0  0  0  0
   -6.9192   -1.0519  -18.8706 C   0  0  0  0  0  0  0  0  0  0  0  0
   -6.2427   -0.5430  -17.8118 N   0  0  0  0  0  0  0  0  0  0  0  0
   -5.1963    0.2038  -18.0833 C   0  0  0  0  0  0  0  0  0  0  0  0
   -4.7501    0.5119  -19.4010 C   0  0  0  0  0  0  0  0  0  0  0  0
   -3.6237    1.3467  -19.6273 C   0  0  0  0  0  0  0  0  0  0  0  0
   -3.2355    1.6570  -20.9003 C   0  0  0  0  0  0  0  0  0  0  0  0
   -3.9550    1.1501  -22.0074 C   0  0  0  0  0  0  0  0  0  0  0  0
   -5.0439    0.3361  -21.8207 C   0  0  0  0  0  0  0  0  0  0  0  0
   -5.4629   -0.0155  -20.5007 C   0  0  0  0  0  0  0  0  0  0  0  0
   -5.5868   -0.0465  -22.6870 H   0  0  0  0  0  0  0  0  0  0  0  0
   -3.6424    1.4157  -23.0134 H   0  0  0  0  0  0  0  0  0  0  0  0
   -2.3809    2.3061  -21.0708 H   0  0  0  0  0  0  0  0  0  0  0  0
   -3.0935    1.7430  -18.7652 H   0  0  0  0  0  0  0  0  0  0  0  0
   -4.6447    0.6130  -17.2366 H   0  0  0  0  0  0  0  0  0  0  0  0
   -7.7758   -1.6819  -18.6332 H   0  0  0  0  0  0  0  0  0  0  0  0
   -6.8340   -2.4156  -22.0215 C   0  0  0  0  0  0  0  0  0  0  0  0
   -5.7381   -2.9041  -21.8656 O   0  0  0  0  0  0  0  0  0  0  0  0
   -7.8446   -2.7099  -23.1529 C   0  0  1  0  0  0  0  0  0  0  0  0
   -7.9878   -4.2279  -23.3507 C   0  0  0  0  0  0  0  0  0  0  0  0
   -6.7555   -4.8107  -23.8673 N   0  0  0  0  0  0  0  0  0  0  0  0
   -6.2893   -6.1080  -23.3700 C   0  0  0  0  0  0  0  0  0  0  0  0
   -5.1543   -6.0537  -22.3844 C   0  0  0  0  0  0  0  0  0  0  0  0
   -5.3109   -5.9998  -20.8338 C   0  0  0  0  0  0  0  0  0  0  0  0
   -5.3113   -6.0000  -20.8340 N   0  0  0  0  0  0  0  0  0  0  0  0
   -2.9250   -5.8989  -22.4335 N   0  0  0  0  0  0  0  0  0  0  0  0
   -4.0213   -5.9798  -23.1004 N   0  0  0  0  0  0  0  0  0  0  0  0
   -2.2225   -5.7768  -23.1520 H   0  0  0  0  0  0  0  0  0  0  0  0
   -6.4704   -6.1131  -20.8927 H   0  0  0  0  0  0  0  0  0  0  0  0
   -5.8759   -6.6155  -24.2593 H   0  0  0  0  0  0  0  0  0  0  0  0
   -7.1752   -6.6602  -23.0393 H   0  0  0  0  0  0  0  0  0  0  0  0
   -6.2147   -4.3036  -25.0307 C   0  0  0  0  0  0  0  0  0  0  0  0
   -5.4955   -4.9642  -25.7666 O   0  0  0  0  0  0  0  0  0  0  0  0
   -6.5654   -2.8829  -25.3381 C   0  0  0  0  0  0  0  0  0  0  0  0
   -6.0649   -2.3300  -26.5176 C   0  0  0  0  0  0  0  0  0  0  0  0
   -6.2843   -1.0015  -26.8335 C   0  0  0  0  0  0  0  0  0  0  0  0
   -7.0126   -0.2304  -25.9313 C   0  0  0  0  0  0  0  0  0  0  0  0
   -7.2263    1.0690  -26.2167 F   0  0  0  0  0  0  0  0  0  0  0  0
   -7.5246   -0.7510  -24.7551 C   0  0  0  0  0  0  0  0  0  0  0  0
   -7.3202   -2.1077  -24.4518 C   0  0  0  0  0  0  0  0  0  0  0  0
   -8.0835   -0.0805  -24.1049 H   0  0  0  0  0  0  0  0  0  0  0  0
   -5.9049   -0.5388  -27.7438 H   0  0  0  0  0  0  0  0  0  0  0  0
   -5.4926   -2.9680  -27.1824 H   0  0  0  0  0  0  0  0  0  0  0  0
   -8.8232   -4.4167  -24.0376 H   0  0  0  0  0  0  0  0  0  0  0  0
   -8.2275   -4.6961  -22.3973 H   0  0  0  0  0  0  0  0  0  0  0  0
   -8.6637    0.0240  -21.9356 H   0  0  0  0  0  0  0  0  0  0  0  0
   -9.3392   -1.0285  -20.7064 H   0  0  0  0  0  0  0  0  0  0  0  0
   -9.6213   -1.4920  -23.4774 H   0  0  0  0  0  0  0  0  0  0  0  0
  -11.0732   -2.3782  -21.7031 H   0  0  0  0  0  0  0  0  0  0  0  0
  -10.5934   -3.6510  -22.8263 H   0  0  0  0  0  0  0  0  0  0  0  0
   -9.8346   -3.5488  -21.2263 H   0  0  0  0  0  0  0  0  0  0  0  0
  1  2  1  0
  2  3  1  0
  3  4  1  0
  4  5  1  0
  5  6  2  0
  6  7  1  0
  7  8  2  0
  8  9  1  0
  9 10  2  0
 10 11  1  0
 11 12  2  0
 12 13  1  0
 13 14  2  0
 13 15  1  0
 12 16  1  0
 11 17  1  0
 10 18  1  0
  8 19  1  0
  6 20  1  0
  4 21  1  0
 21 22  2  0
 21 23  1  0
 23 24  1  6
 24 25  1  0
 25 26  1  0
 26 27  1  0
 27 28  1  0
 28 29  2  0
 29 30  1  0
 30 31  1  0
 30 32  1  0
 28 33  1  0
 26 34  1  0
 26 35  1  0
 25 36  1  0
 36 37  2  0
 36 38  1  0
 38 39  2  0
 39 40  1  0
 40 41  2  0
 41 42  1  0
 41 43  1  0
 43 44  2  0
 43 45  1  0
 40 46  1  0
 39 47  1  0
 24 48  1  0
 24 49  1  0
  3 50  1  0
  3 51  1  0
  2 52  1  6
  1 53  1  0
  1 54  1  0
  1 55  1  0
 23  2  1  0
 31 27  2  0
 44 38  1  0
 14  5  1  0
 44 23  1  0
 14  9  1  0
M  END
>  <cnnaffinities>  (26) 
[5.75405]

>  <score>  (26) 
5.75405

>  <index>  (26) 
26

>  <Smiles>  (26) 
C([C@]1(C(N(c2c(nc(c3c(c(c(c(c23)[H])[H])[H])[H])[H])[H])C(=O)[C@]21C(N(C(c1c(nn(n1)[H])[H])([H])[H])C(=O)c1c(c(c(F)c(c21)[H])[H])[H])([H])[H])([H])[H])[H])([H])([H])[H]

>  <h>  (26) 
<NA>

>  <Training>  (26) 
True

>  <Success>  (26) 
True

>  <enamine_searched>  (26) 
False

>  <enamine_id>  (26) 
nan

$$$$

     RDKit          3D

 58 62  0  0  0  0  0  0  0  0999 V2000
   -7.0524    3.5738  -22.0855 C   0  0  0  0  0  0  0  0  0  0  0  0
   -7.2927    2.5347  -23.0925 N   0  0  0  0  0  4  0  0  0  0  0  0
   -8.4517    2.8307  -23.9850 C   0  0  0  0  0  0  0  0  0  0  0  0
   -8.7290    1.6733  -24.9460 C   0  0  0  0  0  0  0  0  0  0  0  0
   -9.3848    0.5307  -24.3146 N   0  0  0  0  0  0  0  0  0  0  0  0
   -8.6793   -0.7301  -24.1869 C   0  0  0  0  0  0  0  0  0  0  0  0
   -9.0717   -1.4874  -22.8944 C   0  0  2  0  0  0  0  0  0  0  0  0
   -8.5332   -0.7323  -21.6545 C   0  0  0  0  0  0  0  0  0  0  0  0
   -8.9713    0.2946  -21.1708 O   0  0  0  0  0  0  0  0  0  0  0  0
   -7.4165   -1.3861  -21.1877 N   0  0  0  0  0  0  0  0  0  0  0  0
   -6.6058   -0.8074  -20.1699 C   0  0  0  0  0  0  0  0  0  0  0  0
   -6.9118   -1.0415  -18.8553 C   0  0  0  0  0  0  0  0  0  0  0  0
   -6.2076   -0.5516  -17.8041 N   0  0  0  0  0  0  0  0  0  0  0  0
   -5.1718    0.2057  -18.0796 C   0  0  0  0  0  0  0  0  0  0  0  0
   -4.7406    0.5360  -19.3962 C   0  0  0  0  0  0  0  0  0  0  0  0
   -3.6144    1.3698  -19.6398 C   0  0  0  0  0  0  0  0  0  0  0  0
   -3.2296    1.6690  -20.9182 C   0  0  0  0  0  0  0  0  0  0  0  0
   -3.9484    1.1415  -22.0136 C   0  0  0  0  0  0  0  0  0  0  0  0
   -5.0394    0.3289  -21.8057 C   0  0  0  0  0  0  0  0  0  0  0  0
   -5.4751    0.0095  -20.4888 C   0  0  0  0  0  0  0  0  0  0  0  0
   -5.5662   -0.0825  -22.6627 H   0  0  0  0  0  0  0  0  0  0  0  0
   -3.6425    1.3840  -23.0284 H   0  0  0  0  0  0  0  0  0  0  0  0
   -2.3748    2.3171  -21.0967 H   0  0  0  0  0  0  0  0  0  0  0  0
   -3.0793    1.7727  -18.7833 H   0  0  0  0  0  0  0  0  0  0  0  0
   -4.6212    0.6090  -17.2288 H   0  0  0  0  0  0  0  0  0  0  0  0
   -7.7630   -1.6700  -18.6023 H   0  0  0  0  0  0  0  0  0  0  0  0
   -7.0560   -2.5662  -21.9513 C   0  0  0  0  0  0  0  0  0  0  0  0
   -8.3154   -2.8521  -22.8000 C   0  0  2  0  0  0  0  0  0  0  0  0
   -7.9753   -3.5591  -24.1218 C   0  0  0  0  0  0  0  0  0  0  0  0
   -7.5187   -4.5414  -23.9382 H   0  0  0  0  0  0  0  0  0  0  0  0
   -8.8632   -3.7173  -24.7476 H   0  0  0  0  0  0  0  0  0  0  0  0
   -7.2547   -2.9747  -24.7121 H   0  0  0  0  0  0  0  0  0  0  0  0
   -8.9600   -3.5135  -22.2158 H   0  0  0  0  0  0  0  0  0  0  0  0
   -6.8014   -3.3946  -21.2779 H   0  0  0  0  0  0  0  0  0  0  0  0
   -6.1748   -2.3844  -22.5888 H   0  0  0  0  0  0  0  0  0  0  0  0
  -10.5868   -1.5595  -22.8258 C   0  0  0  0  0  0  0  0  0  0  0  0
  -11.2301   -2.5151  -22.0296 C   0  0  0  0  0  0  0  0  0  0  0  0
  -12.6068   -2.5165  -21.9508 C   0  0  0  0  0  0  0  0  0  0  0  0
  -13.2145   -3.4363  -21.1822 F   0  0  0  0  0  0  0  0  0  0  0  0
  -13.3948   -1.5898  -22.6238 C   0  0  0  0  0  0  0  0  0  0  0  0
  -12.7633   -0.6078  -23.3584 C   0  0  0  0  0  0  0  0  0  0  0  0
  -11.3708   -0.5690  -23.4393 C   0  0  0  0  0  0  0  0  0  0  0  0
  -10.7358    0.6027  -24.1333 C   0  0  0  0  0  0  0  0  0  0  0  0
  -11.3906    1.5708  -24.5008 O   0  0  0  0  0  0  0  0  0  0  0  0
  -13.3211    0.1699  -23.8678 H   0  0  0  0  0  0  0  0  0  0  0  0
  -14.4717   -1.6444  -22.5295 H   0  0  0  0  0  0  0  0  0  0  0  0
  -10.6891   -3.2447  -21.4371 H   0  0  0  0  0  0  0  0  0  0  0  0
   -8.8834   -1.3802  -25.0528 H   0  0  0  0  0  0  0  0  0  0  0  0
   -7.6065   -0.5080  -24.1547 H   0  0  0  0  0  0  0  0  0  0  0  0
   -7.7854    1.3191  -25.3802 H   0  0  0  0  0  0  0  0  0  0  0  0
   -9.3806    2.0238  -25.7506 H   0  0  0  0  0  0  0  0  0  0  0  0
   -9.3366    3.0133  -23.3661 H   0  0  0  0  0  0  0  0  0  0  0  0
   -8.2472    3.7430  -24.5571 H   0  0  0  0  0  0  0  0  0  0  0  0
   -6.4278    2.4167  -23.6736 H   0  0  0  0  0  0  0  0  0  0  0  0
   -7.4985    1.6380  -22.5992 H   0  0  0  0  0  0  0  0  0  0  0  0
   -6.1809    3.3004  -21.4880 H   0  0  0  0  0  0  0  0  0  0  0  0
   -7.9292    3.6731  -21.4369 H   0  0  0  0  0  0  0  0  0  0  0  0
   -6.8828    4.5517  -22.5529 H   0  0  0  0  0  0  0  0  0  0  0  0
  1  2  1  0
  2  3  1  0
  3  4  1  0
  4  5  1  0
  5  6  1  0
  7  6  1  6
  7  8  1  0
  8  9  2  0
  8 10  1  0
 10 11  1  0
 11 12  2  0
 12 13  1  0
 13 14  2  0
 14 15  1  0
 15 16  2  0
 16 17  1  0
 17 18  2  0
 18 19  1  0
 19 20  2  0
 19 21  1  0
 18 22  1  0
 17 23  1  0
 16 24  1  0
 14 25  1  0
 12 26  1  0
 10 27  1  0
 27 28  1  0
 28 29  1  0
 29 30  1  0
 29 31  1  0
 29 32  1  0
 28 33  1  1
 27 34  1  0
 27 35  1  0
  7 36  1  0
 36 37  2  0
 37 38  1  0
 38 39  1  0
 38 40  2  0
 40 41  1  0
 41 42  2  0
 42 43  1  0
 43 44  2  0
 41 45  1  0
 40 46  1  0
 37 47  1  0
  6 48  1  0
  6 49  1  0
  4 50  1  0
  4 51  1  0
  3 52  1  0
  3 53  1  0
  2 54  1  0
  2 55  1  0
  1 56  1  0
  1 57  1  0
  1 58  1  0
 43  5  1  0
 28  7  1  0
 42 36  1  0
 20 11  1  0
 20 15  1  0
M  CHG  1   2   1
M  END
>  <cnnaffinities>  (27) 
[6.3767]

>  <score>  (27) 
6.3767

>  <index>  (27) 
27

>  <Smiles>  (27) 
C([N+](C(C(N1C([C@@]2(C(=O)N(c3c(nc(c4c(c(c(c(c34)[H])[H])[H])[H])[H])[H])C([C@@]2(C([H])([H])[H])[H])([H])[H])c2c(c(F)c(c(c2C1=O)[H])[H])[H])([H])[H])([H])[H])([H])[H])([H])[H])([H])([H])[H]

>  <h>  (27) 
<NA>

>  <Training>  (27) 
True

>  <Success>  (27) 
True

>  <enamine_searched>  (27) 
False

>  <enamine_id>  (27) 
nan

$$$$

     RDKit          3D

 64 68  0  0  0  0  0  0  0  0999 V2000
   -7.4192    3.3877  -21.8385 C   0  0  0  0  0  0  0  0  0  0  0  0
   -8.3382    2.9241  -22.8606 N   0  0  0  0  0  0  0  0  0  0  0  0
   -7.7981    2.1934  -23.8764 C   0  0  0  0  0  0  0  0  0  0  0  0
   -6.5900    2.0333  -23.9942 O   0  0  0  0  0  0  0  0  0  0  0  0
   -8.7807    1.5812  -24.8711 C   0  0  0  0  0  0  0  0  0  0  0  0
   -9.4485    0.4221  -24.3197 N   0  0  0  0  0  0  0  0  0  0  0  0
   -8.7048   -0.8150  -24.1623 C   0  0  0  0  0  0  0  0  0  0  0  0
   -9.0778   -1.5534  -22.8543 C   0  0  2  0  0  0  0  0  0  0  0  0
   -8.5450   -0.7683  -21.6358 C   0  0  0  0  0  0  0  0  0  0  0  0
   -9.0224    0.2298  -21.1357 O   0  0  0  0  0  0  0  0  0  0  0  0
   -7.4025   -1.3919  -21.1905 N   0  0  0  0  0  0  0  0  0  0  0  0
   -6.6055   -0.8172  -20.1715 C   0  0  0  0  0  0  0  0  0  0  0  0
   -6.9232   -1.0471  -18.8569 C   0  0  0  0  0  0  0  0  0  0  0  0
   -6.2326   -0.5519  -17.8009 N   0  0  0  0  0  0  0  0  0  0  0  0
   -5.1897    0.2015  -18.0698 C   0  0  0  0  0  0  0  0  0  0  0  0
   -4.7487    0.5207  -19.3871 C   0  0  0  0  0  0  0  0  0  0  0  0
   -3.6232    1.3547  -19.6293 C   0  0  0  0  0  0  0  0  0  0  0  0
   -3.2372    1.6514  -20.9092 C   0  0  0  0  0  0  0  0  0  0  0  0
   -3.9569    1.1348  -22.0104 C   0  0  0  0  0  0  0  0  0  0  0  0
   -5.0510    0.3267  -21.8049 C   0  0  0  0  0  0  0  0  0  0  0  0
   -5.4719   -0.0031  -20.4842 C   0  0  0  0  0  0  0  0  0  0  0  0
   -5.6078   -0.0424  -22.6620 H   0  0  0  0  0  0  0  0  0  0  0  0
   -3.6570    1.3846  -23.0241 H   0  0  0  0  0  0  0  0  0  0  0  0
   -2.3794    2.2953  -21.0873 H   0  0  0  0  0  0  0  0  0  0  0  0
   -3.0862    1.7580  -18.7766 H   0  0  0  0  0  0  0  0  0  0  0  0
   -4.6271    0.5982  -17.2252 H   0  0  0  0  0  0  0  0  0  0  0  0
   -7.7881   -1.6636  -18.6201 H   0  0  0  0  0  0  0  0  0  0  0  0
   -7.0425   -2.5870  -21.9209 C   0  0  0  0  0  0  0  0  0  0  0  0
   -8.3192   -2.9076  -22.7231 C   0  0  2  0  0  0  0  0  0  0  0  0
   -8.0456   -3.6520  -24.0301 C   0  0  0  0  0  0  0  0  0  0  0  0
   -7.4064   -5.3039  -23.7484 S   0  0  0  0  0  0  0  0  0  0  0  0
   -6.0519   -5.1979  -23.2294 O   0  0  0  0  0  0  0  0  0  0  0  0
   -8.4150   -6.0702  -23.0344 O   0  0  0  0  0  0  0  0  0  0  0  0
   -7.2948   -5.9240  -25.2676 N   0  0  0  0  0  0  0  0  0  0  0  0
   -8.4724   -6.4145  -25.9607 C   0  0  0  0  0  0  0  0  0  0  0  0
   -8.9917   -7.0947  -25.2883 H   0  0  0  0  0  0  0  0  0  0  0  0
   -9.1802   -5.6310  -26.2629 H   0  0  0  0  0  0  0  0  0  0  0  0
   -8.1611   -6.9637  -26.8543 H   0  0  0  0  0  0  0  0  0  0  0  0
   -6.5198   -5.5748  -25.8101 H   0  0  0  0  0  0  0  0  0  0  0  0
   -8.9549   -3.7578  -24.6309 H   0  0  0  0  0  0  0  0  0  0  0  0
   -7.2934   -3.1362  -24.6315 H   0  0  0  0  0  0  0  0  0  0  0  0
   -8.9352   -3.5703  -22.1168 H   0  0  0  0  0  0  0  0  0  0  0  0
   -6.1822   -2.4061  -22.5825 H   0  0  0  0  0  0  0  0  0  0  0  0
   -6.7666   -3.3913  -21.2328 H   0  0  0  0  0  0  0  0  0  0  0  0
  -10.5889   -1.6332  -22.7772 C   0  0  0  0  0  0  0  0  0  0  0  0
  -11.2169   -2.5484  -21.9272 C   0  0  0  0  0  0  0  0  0  0  0  0
  -12.5974   -2.5514  -21.8227 C   0  0  0  0  0  0  0  0  0  0  0  0
  -13.3625   -3.6060  -20.6696 Cl  0  0  0  0  0  0  0  0  0  0  0  0
  -13.4010   -1.6883  -22.5680 C   0  0  0  0  0  0  0  0  0  0  0  0
  -12.7851   -0.7483  -23.3654 C   0  0  0  0  0  0  0  0  0  0  0  0
  -11.3950   -0.6906  -23.4277 C   0  0  0  0  0  0  0  0  0  0  0  0
  -10.7951    0.4844  -24.1212 C   0  0  0  0  0  0  0  0  0  0  0  0
  -11.4694    1.4499  -24.4611 O   0  0  0  0  0  0  0  0  0  0  0  0
  -13.3535   -0.0153  -23.9267 H   0  0  0  0  0  0  0  0  0  0  0  0
  -14.4803   -1.7410  -22.4724 H   0  0  0  0  0  0  0  0  0  0  0  0
  -10.6357   -3.2415  -21.3271 H   0  0  0  0  0  0  0  0  0  0  0  0
   -8.9191   -1.4736  -25.0109 H   0  0  0  0  0  0  0  0  0  0  0  0
   -7.6360   -0.5768  -24.1769 H   0  0  0  0  0  0  0  0  0  0  0  0
   -9.5697    2.2893  -25.1474 H   0  0  0  0  0  0  0  0  0  0  0  0
   -8.1900    1.3041  -25.7491 H   0  0  0  0  0  0  0  0  0  0  0  0
   -9.3017    2.7773  -22.5787 H   0  0  0  0  0  0  0  0  0  0  0  0
   -7.9659    3.8434  -21.0102 H   0  0  0  0  0  0  0  0  0  0  0  0
   -6.8025    2.5516  -21.4767 H   0  0  0  0  0  0  0  0  0  0  0  0
   -6.7419    4.1328  -22.2618 H   0  0  0  0  0  0  0  0  0  0  0  0
  1  2  1  0
  2  3  1  0
  3  4  2  0
  3  5  1  0
  5  6  1  0
  6  7  1  0
  8  7  1  6
  8  9  1  0
  9 10  2  0
  9 11  1  0
 11 12  1  0
 12 13  2  0
 13 14  1  0
 14 15  2  0
 15 16  1  0
 16 17  2  0
 17 18  1  0
 18 19  2  0
 19 20  1  0
 20 21  2  0
 20 22  1  0
 19 23  1  0
 18 24  1  0
 17 25  1  0
 15 26  1  0
 13 27  1  0
 11 28  1  0
 28 29  1  0
 29 30  1  0
 30 31  1  0
 31 32  2  0
 31 33  2  0
 31 34  1  0
 34 35  1  0
 35 36  1  0
 35 37  1  0
 35 38  1  0
 34 39  1  0
 30 40  1  0
 30 41  1  0
 29 42  1  1
 28 43  1  0
 28 44  1  0
  8 45  1  0
 45 46  2  0
 46 47  1  0
 47 48  1  0
 47 49  2  0
 49 50  1  0
 50 51  2  0
 51 52  1  0
 52 53  2  0
 50 54  1  0
 49 55  1  0
 46 56  1  0
  7 57  1  0
  7 58  1  0
  5 59  1  0
  5 60  1  0
  2 61  1  0
  1 62  1  0
  1 63  1  0
  1 64  1  0
 52  6  1  0
 29  8  1  0
 51 45  1  0
 21 12  1  0
 21 16  1  0
M  END
>  <cnnaffinities>  (28) 
[6.67853, 6.94897, 6.68956, 6.90354, 6.86433]

>  <score>  (28) 
6.67853

>  <index>  (28) 
28

>  <Smiles>  (28) 
C(N(C(=O)C(N1C([C@@]2(C(=O)N(c3c(nc(c4c(c(c(c(c34)[H])[H])[H])[H])[H])[H])C([C@@]2(C(S(=O)(=O)N(C([H])([H])[H])[H])([H])[H])[H])([H])[H])c2c(c(Cl)c(c(c2C1=O)[H])[H])[H])([H])[H])([H])[H])[H])([H])([H])[H]

>  <h>  (28) 
<NA>

>  <Training>  (28) 
True

>  <Success>  (28) 
True

>  <enamine_searched>  (28) 
False

>  <enamine_id>  (28) 
nan

$$$$

     RDKit          3D

 55 60  0  0  0  0  0  0  0  0999 V2000
  -10.2281   -2.9596  -22.0706 C   0  0  0  0  0  0  0  0  0  0  0  0
   -9.1479   -2.0231  -22.6436 C   0  0  1  0  0  0  0  0  0  0  0  0
   -8.6729   -1.0291  -21.5618 C   0  0  0  0  0  0  0  0  0  0  0  0
   -7.3426   -1.4656  -21.2095 N   0  0  0  0  0  0  0  0  0  0  0  0
   -6.5676   -0.8642  -20.1884 C   0  0  0  0  0  0  0  0  0  0  0  0
   -6.9072   -1.0609  -18.8741 C   0  0  0  0  0  0  0  0  0  0  0  0
   -6.2344   -0.5416  -17.8192 N   0  0  0  0  0  0  0  0  0  0  0  0
   -5.1889    0.2059  -18.0890 C   0  0  0  0  0  0  0  0  0  0  0  0
   -4.7423    0.5149  -19.4063 C   0  0  0  0  0  0  0  0  0  0  0  0
   -3.6177    1.3529  -19.6336 C   0  0  0  0  0  0  0  0  0  0  0  0
   -3.2296    1.6633  -20.9076 C   0  0  0  0  0  0  0  0  0  0  0  0
   -3.9536    1.1565  -22.0124 C   0  0  0  0  0  0  0  0  0  0  0  0
   -5.0421    0.3414  -21.8225 C   0  0  0  0  0  0  0  0  0  0  0  0
   -5.4542   -0.0182  -20.5035 C   0  0  0  0  0  0  0  0  0  0  0  0
   -5.5887   -0.0411  -22.6855 H   0  0  0  0  0  0  0  0  0  0  0  0
   -3.6399    1.4127  -23.0210 H   0  0  0  0  0  0  0  0  0  0  0  0
   -2.3702    2.3081  -21.0788 H   0  0  0  0  0  0  0  0  0  0  0  0
   -3.0879    1.7487  -18.7708 H   0  0  0  0  0  0  0  0  0  0  0  0
   -4.6395    0.6070  -17.2372 H   0  0  0  0  0  0  0  0  0  0  0  0
   -7.7637   -1.6848  -18.6203 H   0  0  0  0  0  0  0  0  0  0  0  0
   -6.8245   -2.4311  -22.0352 C   0  0  0  0  0  0  0  0  0  0  0  0
   -5.7318   -2.9339  -21.8802 O   0  0  0  0  0  0  0  0  0  0  0  0
   -7.8430   -2.7127  -23.1600 C   0  0  1  0  0  0  0  0  0  0  0  0
   -7.9894   -4.2335  -23.3714 C   0  0  0  0  0  0  0  0  0  0  0  0
   -6.7686   -4.8245  -23.9094 N   0  0  0  0  0  0  0  0  0  0  0  0
   -6.2547   -6.0875  -23.3512 C   0  0  0  0  0  0  0  0  0  0  0  0
   -5.0986   -6.0486  -22.3662 C   0  0  0  0  0  0  0  0  0  0  0  0
   -5.3455   -5.8587  -20.8328 C   0  0  0  0  0  0  0  0  0  0  0  0
   -5.3459   -5.8590  -20.8331 N   0  0  0  0  0  0  0  0  0  0  0  0
   -2.8672   -5.8661  -22.3690 N   0  0  0  0  0  0  0  0  0  0  0  0
   -3.9467   -6.0117  -23.0613 N   0  0  0  0  0  0  0  0  0  0  0  0
   -2.1554   -5.6765  -23.0834 H   0  0  0  0  0  0  0  0  0  0  0  0
   -6.4983   -6.1663  -20.8922 H   0  0  0  0  0  0  0  0  0  0  0  0
   -5.9565   -6.6151  -24.2521 H   0  0  0  0  0  0  0  0  0  0  0  0
   -7.1424   -6.5905  -22.9252 H   0  0  0  0  0  0  0  0  0  0  0  0
   -6.2244   -4.3101  -25.0609 C   0  0  0  0  0  0  0  0  0  0  0  0
   -5.4703   -4.9245  -25.8087 O   0  0  0  0  0  0  0  0  0  0  0  0
   -6.5925   -2.8805  -25.3566 C   0  0  0  0  0  0  0  0  0  0  0  0
   -6.0723   -2.3251  -26.5258 C   0  0  0  0  0  0  0  0  0  0  0  0
   -6.2882   -0.9942  -26.8289 C   0  0  0  0  0  0  0  0  0  0  0  0
   -7.0189   -0.2310  -25.9256 C   0  0  0  0  0  0  0  0  0  0  0  0
   -7.2216    1.0686  -26.2070 F   0  0  0  0  0  0  0  0  0  0  0  0
   -7.5417   -0.7490  -24.7565 C   0  0  0  0  0  0  0  0  0  0  0  0
   -7.3439   -2.1072  -24.4648 C   0  0  0  0  0  0  0  0  0  0  0  0
   -8.0882   -0.0735  -24.1030 H   0  0  0  0  0  0  0  0  0  0  0  0
   -5.9053   -0.5247  -27.7287 H   0  0  0  0  0  0  0  0  0  0  0  0
   -5.4853   -2.9870  -27.1546 H   0  0  0  0  0  0  0  0  0  0  0  0
   -8.8826   -4.3954  -24.0034 H   0  0  0  0  0  0  0  0  0  0  0  0
   -8.1696   -4.7036  -22.4124 H   0  0  0  0  0  0  0  0  0  0  0  0
   -8.6654    0.0171  -21.8994 H   0  0  0  0  0  0  0  0  0  0  0  0
   -9.3305   -1.0816  -20.6994 H   0  0  0  0  0  0  0  0  0  0  0  0
   -9.6160   -1.4841  -23.4760 H   0  0  0  0  0  0  0  0  0  0  0  0
  -11.0806   -2.3770  -21.7010 H   0  0  0  0  0  0  0  0  0  0  0  0
  -10.6161   -3.6478  -22.8271 H   0  0  0  0  0  0  0  0  0  0  0  0
   -9.8526   -3.5585  -21.2327 H   0  0  0  0  0  0  0  0  0  0  0  0
  1  2  1  0
  2  3  1  0
  3  4  1  0
  4  5  1  0
  5  6  2  0
  6  7  1  0
  7  8  2  0
  8  9  1  0
  9 10  2  0
 10 11  1  0
 11 12  2  0
 12 13  1  0
 13 14  2  0
 13 15  1  0
 12 16  1  0
 11 17  1  0
 10 18  1  0
  8 19  1  0
  6 20  1  0
  4 21  1  0
 21 22  2  0
 21 23  1  0
 23 24  1  6
 24 25  1  0
 25 26  1  0
 26 27  1  0
 27 28  1  0
 28 29  2  0
 29 30  1  0
 30 31  1  0
 30 32  1  0
 28 33  1  0
 26 34  1  0
 26 35  1  0
 25 36  1  0
 36 37  2  0
 36 38  1  0
 38 39  2  0
 39 40  1  0
 40 41  2  0
 41 42  1  0
 41 43  1  0
 43 44  2  0
 43 45  1  0
 40 46  1  0
 39 47  1  0
 24 48  1  0
 24 49  1  0
  3 50  1  0
  3 51  1  0
  2 52  1  6
  1 53  1  0
  1 54  1  0
  1 55  1  0
 23  2  1  0
 31 27  2  0
 44 38  1  0
 14  5  1  0
 44 23  1  0
 14  9  1  0
M  END
>  <cnnaffinities>  (29) 
[5.75269, 6.39734]

>  <score>  (29) 
5.75269

>  <index>  (29) 
29

>  <Smiles>  (29) 
C([C@]1(C(N(c2c(nc(c3c(c(c(c(c23)[H])[H])[H])[H])[H])[H])C(=O)[C@]21C(N(C(c1c(nn(n1)[H])[H])([H])[H])C(=O)c1c(c(c(F)c(c21)[H])[H])[H])([H])[H])([H])[H])[H])([H])([H])[H]

>  <h>  (29) 
<NA>

>  <Training>  (29) 
True

>  <Success>  (29) 
True

>  <enamine_searched>  (29) 
False

>  <enamine_id>  (29) 
nan

$$$$

     RDKit          3D

 58 63  0  0  0  0  0  0  0  0999 V2000
   -7.5254   -3.5833  -23.7420 C   0  0  0  0  0  0  0  0  0  0  0  0
   -8.4190   -2.9140  -22.6927 C   0  0  1  0  0  0  0  0  0  0  0  0
   -7.7204   -2.7345  -21.3294 C   0  0  0  0  0  0  0  0  0  0  0  0
   -7.4087   -1.3234  -21.2571 N   0  0  0  0  0  0  0  0  0  0  0  0
   -6.6137   -0.7874  -20.2161 C   0  0  0  0  0  0  0  0  0  0  0  0
   -6.9097   -1.0653  -18.9041 C   0  0  0  0  0  0  0  0  0  0  0  0
   -6.2354   -0.5750  -17.8337 N   0  0  0  0  0  0  0  0  0  0  0  0
   -5.2030    0.1970  -18.0831 C   0  0  0  0  0  0  0  0  0  0  0  0
   -4.7505    0.5241  -19.3933 C   0  0  0  0  0  0  0  0  0  0  0  0
   -3.6131    1.3489  -19.6056 C   0  0  0  0  0  0  0  0  0  0  0  0
   -3.1817    1.6196  -20.8753 C   0  0  0  0  0  0  0  0  0  0  0  0
   -3.8535    1.0686  -21.9887 C   0  0  0  0  0  0  0  0  0  0  0  0
   -4.9550    0.2703  -21.8092 C   0  0  0  0  0  0  0  0  0  0  0  0
   -5.4524    0.0034  -20.5023 C   0  0  0  0  0  0  0  0  0  0  0  0
   -5.4621   -0.1582  -22.6671 H   0  0  0  0  0  0  0  0  0  0  0  0
   -3.4989    1.2861  -22.9923 H   0  0  0  0  0  0  0  0  0  0  0  0
   -2.3203    2.2621  -21.0377 H   0  0  0  0  0  0  0  0  0  0  0  0
   -3.1013    1.7601  -18.7396 H   0  0  0  0  0  0  0  0  0  0  0  0
   -4.6606    0.5965  -17.2263 H   0  0  0  0  0  0  0  0  0  0  0  0
   -7.7609   -1.7009  -18.6631 H   0  0  0  0  0  0  0  0  0  0  0  0
   -8.1698   -0.5559  -22.1167 C   0  0  0  0  0  0  0  0  0  0  0  0
   -8.1992    0.6550  -22.1170 O   0  0  0  0  0  0  0  0  0  0  0  0
   -8.9721   -1.5000  -23.0445 C   0  0  1  0  0  0  0  0  0  0  0  0
   -8.7495   -1.0904  -24.5202 C   0  0  0  0  0  0  0  0  0  0  0  0
   -9.3113    0.2194  -24.8101 N   0  0  0  0  0  0  0  0  0  0  0  0
   -8.5407    1.1597  -25.6029 C   0  0  0  0  0  0  0  0  0  0  0  0
   -8.4837    0.8285  -27.0796 C   0  0  0  0  0  0  0  0  0  0  0  0
   -9.1336    1.6106  -27.9864 C   0  0  0  0  0  0  0  0  0  0  0  0
   -9.0387    1.3363  -29.4082 C   0  0  0  0  0  0  0  0  0  0  0  0
   -9.5530    1.9333  -30.3360 O   0  0  0  0  0  0  0  0  0  0  0  0
   -8.2461    0.2073  -29.6686 N   0  0  0  0  0  0  0  0  0  0  0  0
   -7.6406   -0.5200  -28.7015 C   0  0  0  0  0  0  0  0  0  0  0  0
   -7.7223   -0.2683  -27.4364 N   0  0  0  0  0  0  0  0  0  0  0  0
   -7.0503   -1.3655  -29.0482 H   0  0  0  0  0  0  0  0  0  0  0  0
   -8.1799   -0.0604  -30.6390 H   0  0  0  0  0  0  0  0  0  0  0  0
   -9.7753    2.4224  -27.6602 H   0  0  0  0  0  0  0  0  0  0  0  0
   -9.0002    2.1439  -25.4541 H   0  0  0  0  0  0  0  0  0  0  0  0
   -7.5236    1.1620  -25.1934 H   0  0  0  0  0  0  0  0  0  0  0  0
  -10.5418    0.6099  -24.3692 C   0  0  0  0  0  0  0  0  0  0  0  0
  -11.0893    1.6238  -24.7825 O   0  0  0  0  0  0  0  0  0  0  0  0
  -11.1861   -0.3090  -23.3764 C   0  0  0  0  0  0  0  0  0  0  0  0
  -12.5499   -0.1473  -23.1468 C   0  0  0  0  0  0  0  0  0  0  0  0
  -13.2379   -1.0528  -22.3690 C   0  0  0  0  0  0  0  0  0  0  0  0
  -12.5231   -2.0925  -21.7933 C   0  0  0  0  0  0  0  0  0  0  0  0
  -13.1654   -2.9323  -20.9637 F   0  0  0  0  0  0  0  0  0  0  0  0
  -11.1637   -2.2323  -21.9395 C   0  0  0  0  0  0  0  0  0  0  0  0
  -10.4677   -1.3553  -22.7764 C   0  0  0  0  0  0  0  0  0  0  0  0
  -10.6980   -3.0459  -21.3970 H   0  0  0  0  0  0  0  0  0  0  0  0
  -14.3030   -0.9881  -22.2071 H   0  0  0  0  0  0  0  0  0  0  0  0
  -13.0609    0.6804  -23.6271 H   0  0  0  0  0  0  0  0  0  0  0  0
   -7.6830   -1.0395  -24.7493 H   0  0  0  0  0  0  0  0  0  0  0  0
   -9.1983   -1.8509  -25.1771 H   0  0  0  0  0  0  0  0  0  0  0  0
   -8.3920   -3.0176  -20.5086 H   0  0  0  0  0  0  0  0  0  0  0  0
   -6.8006   -3.3221  -21.2445 H   0  0  0  0  0  0  0  0  0  0  0  0
   -9.2580   -3.6012  -22.5853 H   0  0  0  0  0  0  0  0  0  0  0  0
   -7.2270   -4.5778  -23.3906 H   0  0  0  0  0  0  0  0  0  0  0  0
   -6.6214   -3.0027  -23.9523 H   0  0  0  0  0  0  0  0  0  0  0  0
   -8.0741   -3.7268  -24.6796 H   0  0  0  0  0  0  0  0  0  0  0  0
  1  2  1  0
  2  3  1  0
  3  4  1  0
  4  5  1  0
  5  6  2  0
  6  7  1  0
  7  8  2  0
  8  9  1  0
  9 10  2  0
 10 11  1  0
 11 12  2  0
 12 13  1  0
 13 14  2  0
 13 15  1  0
 12 16  1  0
 11 17  1  0
 10 18  1  0
  8 19  1  0
  6 20  1  0
  4 21  1  0
 21 22  2  0
 21 23  1  0
 23 24  1  6
 24 25  1  0
 25 26  1  0
 26 27  1  0
 27 28  2  0
 28 29  1  0
 29 30  2  0
 29 31  1  0
 31 32  1  0
 32 33  2  0
 32 34  1  0
 31 35  1  0
 28 36  1  0
 26 37  1  0
 26 38  1  0
 25 39  1  0
 39 40  2  0
 39 41  1  0
 41 42  2  0
 42 43  1  0
 43 44  2  0
 44 45  1  0
 44 46  1  0
 46 47  2  0
 46 48  1  0
 43 49  1  0
 42 50  1  0
 24 51  1  0
 24 52  1  0
  3 53  1  0
  3 54  1  0
  2 55  1  1
  1 56  1  0
  1 57  1  0
  1 58  1  0
 23  2  1  0
 33 27  1  0
 47 41  1  0
 14  5  1  0
 47 23  1  0
 14  9  1  0
M  END
>  <cnnaffinities>  (30) 
[6.15506, 6.15299, 6.48415, 6.39567]

>  <score>  (30) 
6.15506

>  <index>  (30) 
30

>  <Smiles>  (30) 
C([C@]1(C(N(c2c(nc(c3c(c(c(c(c23)[H])[H])[H])[H])[H])[H])C(=O)[C@]21C(N(C(c1c(c(=O)n(c(n1)[H])[H])[H])([H])[H])C(=O)c1c(c(c(F)c(c21)[H])[H])[H])([H])[H])([H])[H])[H])([H])([H])[H]

>  <h>  (30) 
<NA>

>  <Training>  (30) 
True

>  <Success>  (30) 
True

>  <enamine_searched>  (30) 
False

>  <enamine_id>  (30) 
nan

$$$$

     RDKit          3D

 66 71  0  0  0  0  0  0  0  0999 V2000
   -7.3715    3.4620  -21.8564 C   0  0  0  0  0  0  0  0  0  0  0  0
   -8.3365    3.0168  -22.8499 N   0  0  0  0  0  0  0  0  0  0  0  0
   -7.8601    2.2318  -23.8622 C   0  0  0  0  0  0  0  0  0  0  0  0
   -6.6746    1.9694  -23.9986 O   0  0  0  0  0  0  0  0  0  0  0  0
   -8.9041    1.6750  -24.8289 C   0  0  0  0  0  0  0  0  0  0  0  0
   -9.5694    0.5329  -24.2435 N   0  0  0  0  0  0  0  0  0  0  0  0
   -8.8321   -0.7118  -24.1297 C   0  0  0  0  0  0  0  0  0  0  0  0
   -9.1750   -1.4644  -22.8218 C   0  0  2  0  0  0  0  0  0  0  0  0
   -8.5775   -0.7029  -21.6147 C   0  0  0  0  0  0  0  0  0  0  0  0
   -9.0035    0.3152  -21.1140 O   0  0  0  0  0  0  0  0  0  0  0  0
   -7.4458   -1.3685  -21.1969 N   0  0  0  0  0  0  0  0  0  0  0  0
   -6.6230   -0.8203  -20.1780 C   0  0  0  0  0  0  0  0  0  0  0  0
   -6.9383   -1.0478  -18.8629 C   0  0  0  0  0  0  0  0  0  0  0  0
   -6.2423   -0.5618  -17.8051 N   0  0  0  0  0  0  0  0  0  0  0  0
   -5.2001    0.1902  -18.0771 C   0  0  0  0  0  0  0  0  0  0  0  0
   -4.7654    0.5190  -19.3934 C   0  0  0  0  0  0  0  0  0  0  0  0
   -3.6405    1.3547  -19.6314 C   0  0  0  0  0  0  0  0  0  0  0  0
   -3.2570    1.6594  -20.9078 C   0  0  0  0  0  0  0  0  0  0  0  0
   -3.9777    1.1484  -22.0111 C   0  0  0  0  0  0  0  0  0  0  0  0
   -5.0713    0.3388  -21.8098 C   0  0  0  0  0  0  0  0  0  0  0  0
   -5.4928   -0.0019  -20.4937 C   0  0  0  0  0  0  0  0  0  0  0  0
   -5.6280   -0.0226  -22.6713 H   0  0  0  0  0  0  0  0  0  0  0  0
   -3.6726    1.4002  -23.0222 H   0  0  0  0  0  0  0  0  0  0  0  0
   -2.3970    2.2986  -21.0820 H   0  0  0  0  0  0  0  0  0  0  0  0
   -3.1022    1.7501  -18.7729 H   0  0  0  0  0  0  0  0  0  0  0  0
   -4.6289    0.5808  -17.2338 H   0  0  0  0  0  0  0  0  0  0  0  0
   -7.8078   -1.6565  -18.6266 H   0  0  0  0  0  0  0  0  0  0  0  0
   -7.1463   -2.5626  -21.9640 C   0  0  0  0  0  0  0  0  0  0  0  0
   -8.4485   -2.8376  -22.7360 C   0  0  2  0  0  0  0  0  0  0  0  0
   -8.1912   -3.6007  -24.0384 C   0  0  0  0  0  0  0  0  0  0  0  0
   -9.4191   -3.9302  -24.7268 N   0  0  0  0  0  0  0  0  0  0  0  0
   -9.4254   -4.5736  -25.9244 C   0  0  0  0  0  0  0  0  0  0  0  0
  -10.6293   -4.9177  -26.5637 C   0  0  0  0  0  0  0  0  0  0  0  0
  -10.5299   -5.5292  -27.7889 C   0  0  0  0  0  0  0  0  0  0  0  0
   -9.3625   -5.8108  -28.3944 N   0  0  0  0  0  0  0  0  0  0  0  0
   -8.2951   -5.4627  -27.6896 C   0  0  0  0  0  0  0  0  0  0  0  0
   -8.2472   -4.8600  -26.4986 N   0  0  0  0  0  0  0  0  0  0  0  0
   -7.3283   -5.6965  -28.1399 H   0  0  0  0  0  0  0  0  0  0  0  0
  -11.4261   -5.8196  -28.3308 H   0  0  0  0  0  0  0  0  0  0  0  0
  -11.5914   -4.7111  -26.1065 H   0  0  0  0  0  0  0  0  0  0  0  0
  -10.2976   -3.7673  -24.2600 H   0  0  0  0  0  0  0  0  0  0  0  0
   -7.5532   -3.0163  -24.7150 H   0  0  0  0  0  0  0  0  0  0  0  0
   -7.6408   -4.5257  -23.8256 H   0  0  0  0  0  0  0  0  0  0  0  0
   -9.0649   -3.4903  -22.1127 H   0  0  0  0  0  0  0  0  0  0  0  0
   -6.8796   -3.3915  -21.2997 H   0  0  0  0  0  0  0  0  0  0  0  0
   -6.3055   -2.3958  -22.6569 H   0  0  0  0  0  0  0  0  0  0  0  0
  -10.6848   -1.5283  -22.6984 C   0  0  0  0  0  0  0  0  0  0  0  0
  -11.2974   -2.4772  -21.8741 C   0  0  0  0  0  0  0  0  0  0  0  0
  -12.6696   -2.4660  -21.7099 C   0  0  0  0  0  0  0  0  0  0  0  0
  -13.3932   -3.6098  -20.6231 Cl  0  0  0  0  0  0  0  0  0  0  0  0
  -13.4846   -1.5278  -22.3419 C   0  0  0  0  0  0  0  0  0  0  0  0
  -12.8841   -0.5722  -23.1336 C   0  0  0  0  0  0  0  0  0  0  0  0
  -11.5014   -0.5548  -23.2895 C   0  0  0  0  0  0  0  0  0  0  0  0
  -10.9096    0.6052  -24.0147 C   0  0  0  0  0  0  0  0  0  0  0  0
  -11.5850    1.5716  -24.3520 O   0  0  0  0  0  0  0  0  0  0  0  0
  -13.4584    0.2036  -23.6261 H   0  0  0  0  0  0  0  0  0  0  0  0
  -14.5550   -1.5310  -22.1647 H   0  0  0  0  0  0  0  0  0  0  0  0
  -10.7197   -3.1970  -21.3029 H   0  0  0  0  0  0  0  0  0  0  0  0
   -7.7601   -0.4905  -24.1708 H   0  0  0  0  0  0  0  0  0  0  0  0
   -9.0763   -1.3636  -24.9770 H   0  0  0  0  0  0  0  0  0  0  0  0
   -9.6804    2.4108  -25.0649 H   0  0  0  0  0  0  0  0  0  0  0  0
   -8.3818    1.3710  -25.7425 H   0  0  0  0  0  0  0  0  0  0  0  0
   -9.2949    2.8979  -22.5327 H   0  0  0  0  0  0  0  0  0  0  0  0
   -7.8812    3.9473  -21.0170 H   0  0  0  0  0  0  0  0  0  0  0  0
   -6.7738    2.6024  -21.5176 H   0  0  0  0  0  0  0  0  0  0  0  0
   -6.6850    4.1852  -22.3061 H   0  0  0  0  0  0  0  0  0  0  0  0
  1  2  1  0
  2  3  1  0
  3  4  2  0
  3  5  1  0
  5  6  1  0
  6  7  1  0
  8  7  1  6
  8  9  1  0
  9 10  2  0
  9 11  1  0
 11 12  1  0
 12 13  2  0
 13 14  1  0
 14 15  2  0
 15 16  1  0
 16 17  2  0
 17 18  1  0
 18 19  2  0
 19 20  1  0
 20 21  2  0
 20 22  1  0
 19 23  1  0
 18 24  1  0
 17 25  1  0
 15 26  1  0
 13 27  1  0
 11 28  1  0
 28 29  1  0
 29 30  1  0
 30 31  1  0
 31 32  1  0
 32 33  2  0
 33 34  1  0
 34 35  2  0
 35 36  1  0
 36 37  2  0
 36 38  1  0
 34 39  1  0
 33 40  1  0
 31 41  1  0
 30 42  1  0
 30 43  1  0
 29 44  1  1
 28 45  1  0
 28 46  1  0
  8 47  1  0
 47 48  2  0
 48 49  1  0
 49 50  1  0
 49 51  2  0
 51 52  1  0
 52 53  2  0
 53 54  1  0
 54 55  2  0
 52 56  1  0
 51 57  1  0
 48 58  1  0
  7 59  1  0
  7 60  1  0
  5 61  1  0
  5 62  1  0
  2 63  1  0
  1 64  1  0
  1 65  1  0
  1 66  1  0
 54  6  1  0
 29  8  1  0
 37 32  1  0
 53 47  1  0
 21 12  1  0
 21 16  1  0
M  END
>  <cnnaffinities>  (31) 
[6.62192, 7.00885]

>  <score>  (31) 
6.62192

>  <index>  (31) 
31

>  <Smiles>  (31) 
C(N(C(=O)C(N1C([C@@]2(C(=O)N(c3c(nc(c4c(c(c(c(c34)[H])[H])[H])[H])[H])[H])C([C@@]2(C(N(c2c(c(nc(n2)[H])[H])[H])[H])([H])[H])[H])([H])[H])c2c(c(Cl)c(c(c2C1=O)[H])[H])[H])([H])[H])([H])[H])[H])([H])([H])[H]

>  <h>  (31) 
<NA>

>  <Training>  (31) 
True

>  <Success>  (31) 
True

>  <enamine_searched>  (31) 
False

>  <enamine_id>  (31) 
nan

$$$$

     RDKit          3D

 57 62  0  0  0  0  0  0  0  0999 V2000
   -8.2365   -3.9873  -23.7495 C   0  0  0  0  0  0  0  0  0  0  0  0
   -8.4988   -3.1293  -22.5092 C   0  0  1  0  0  0  0  0  0  0  0  0
   -7.1817   -2.4896  -22.0325 C   0  0  0  0  0  0  0  0  0  0  0  0
   -7.5984   -1.3215  -21.2831 N   0  0  0  0  0  0  0  0  0  0  0  0
   -6.7926   -0.7906  -20.2306 C   0  0  0  0  0  0  0  0  0  0  0  0
   -7.1035   -1.0436  -18.9145 C   0  0  0  0  0  0  0  0  0  0  0  0
   -6.3819   -0.6078  -17.8475 N   0  0  0  0  0  0  0  0  0  0  0  0
   -5.3141    0.1138  -18.0922 C   0  0  0  0  0  0  0  0  0  0  0  0
   -4.8577    0.4410  -19.3988 C   0  0  0  0  0  0  0  0  0  0  0  0
   -3.7148    1.2614  -19.6085 C   0  0  0  0  0  0  0  0  0  0  0  0
   -3.2864    1.5417  -20.8763 C   0  0  0  0  0  0  0  0  0  0  0  0
   -3.9538    0.9799  -21.9881 C   0  0  0  0  0  0  0  0  0  0  0  0
   -5.0525    0.1723  -21.8056 C   0  0  0  0  0  0  0  0  0  0  0  0
   -5.5766   -0.0710  -20.5077 C   0  0  0  0  0  0  0  0  0  0  0  0
   -5.5476   -0.2581  -22.6721 H   0  0  0  0  0  0  0  0  0  0  0  0
   -3.6059    1.1970  -22.9950 H   0  0  0  0  0  0  0  0  0  0  0  0
   -2.4404    2.2050  -21.0399 H   0  0  0  0  0  0  0  0  0  0  0  0
   -3.2001    1.6698  -18.7415 H   0  0  0  0  0  0  0  0  0  0  0  0
   -4.7397    0.4709  -17.2351 H   0  0  0  0  0  0  0  0  0  0  0  0
   -7.9747   -1.6459  -18.6685 H   0  0  0  0  0  0  0  0  0  0  0  0
   -8.9119   -0.9604  -21.5493 C   0  0  0  0  0  0  0  0  0  0  0  0
   -9.5077   -0.0651  -20.9902 O   0  0  0  0  0  0  0  0  0  0  0  0
   -9.4851   -1.9243  -22.6505 C   0  0  1  0  0  0  0  0  0  0  0  0
   -9.3261   -1.3080  -24.0680 C   0  0  0  0  0  0  0  0  0  0  0  0
  -10.3198   -0.2918  -24.4002 N   0  0  0  0  0  0  0  0  0  0  0  0
   -9.8356    0.9167  -25.0684 C   0  0  0  0  0  0  0  0  0  0  0  0
   -9.0086    1.6679  -24.0865 C   0  0  0  0  0  0  0  0  0  0  0  0
   -7.6991    1.7547  -24.0131 N   0  0  0  0  0  0  0  0  0  0  0  0
   -7.4422    2.3560  -22.8320 N   0  0  0  0  0  0  0  0  0  0  0  0
   -8.5332    2.6131  -22.1989 N   0  0  0  0  0  0  0  0  0  0  0  0
   -9.5410    2.1943  -22.9768 N   0  0  0  0  0  0  0  0  0  0  0  0
  -10.9310    2.3305  -22.5849 C   0  0  0  0  0  0  0  0  0  0  0  0
  -11.2166    1.4815  -21.9610 H   0  0  0  0  0  0  0  0  0  0  0  0
  -11.5651    2.3788  -23.4707 H   0  0  0  0  0  0  0  0  0  0  0  0
  -11.0605    3.2611  -22.0431 H   0  0  0  0  0  0  0  0  0  0  0  0
  -10.7054    1.5006  -25.3854 H   0  0  0  0  0  0  0  0  0  0  0  0
   -9.2163    0.6738  -25.9390 H   0  0  0  0  0  0  0  0  0  0  0  0
  -11.6368   -0.3917  -24.0553 C   0  0  0  0  0  0  0  0  0  0  0  0
  -12.5046    0.3794  -24.4473 O   0  0  0  0  0  0  0  0  0  0  0  0
  -11.9694   -1.4427  -23.0598 C   0  0  0  0  0  0  0  0  0  0  0  0
  -13.3192   -1.5267  -22.7134 C   0  0  0  0  0  0  0  0  0  0  0  0
  -13.7347   -2.4476  -21.7794 C   0  0  0  0  0  0  0  0  0  0  0  0
  -12.7586   -3.2397  -21.2008 C   0  0  0  0  0  0  0  0  0  0  0  0
  -13.1673   -4.0766  -20.2342 F   0  0  0  0  0  0  0  0  0  0  0  0
  -11.4199   -3.1826  -21.5391 C   0  0  0  0  0  0  0  0  0  0  0  0
  -10.9714   -2.2182  -22.4452 C   0  0  0  0  0  0  0  0  0  0  0  0
  -10.7321   -3.8755  -21.0648 H   0  0  0  0  0  0  0  0  0  0  0  0
  -14.7607   -2.5581  -21.4494 H   0  0  0  0  0  0  0  0  0  0  0  0
  -14.0174   -0.8530  -23.1973 H   0  0  0  0  0  0  0  0  0  0  0  0
   -8.3320   -0.8444  -24.1482 H   0  0  0  0  0  0  0  0  0  0  0  0
   -9.4173   -2.1197  -24.8023 H   0  0  0  0  0  0  0  0  0  0  0  0
   -6.5676   -2.2164  -22.9096 H   0  0  0  0  0  0  0  0  0  0  0  0
   -6.5817   -3.1549  -21.4029 H   0  0  0  0  0  0  0  0  0  0  0  0
   -8.8805   -3.7655  -21.7042 H   0  0  0  0  0  0  0  0  0  0  0  0
   -7.5372   -4.7981  -23.5136 H   0  0  0  0  0  0  0  0  0  0  0  0
   -9.1469   -4.4327  -24.1667 H   0  0  0  0  0  0  0  0  0  0  0  0
   -7.7590   -3.3859  -24.5356 H   0  0  0  0  0  0  0  0  0  0  0  0
  1  2  1  0
  2  3  1  0
  3  4  1  0
  4  5  1  0
  5  6  2  0
  6  7  1  0
  7  8  2  0
  8  9  1  0
  9 10  2  0
 10 11  1  0
 11 12  2  0
 12 13  1  0
 13 14  2  0
 13 15  1  0
 12 16  1  0
 11 17  1  0
 10 18  1  0
  8 19  1  0
  6 20  1  0
  4 21  1  0
 21 22  2  0
 21 23  1  0
 23 24  1  6
 24 25  1  0
 25 26  1  0
 26 27  1  0
 27 28  2  0
 28 29  1  0
 29 30  2  0
 30 31  1  0
 31 32  1  0
 32 33  1  0
 32 34  1  0
 32 35  1  0
 26 36  1  0
 26 37  1  0
 25 38  1  0
 38 39  2  0
 38 40  1  0
 40 41  2  0
 41 42  1  0
 42 43  2  0
 43 44  1  0
 43 45  1  0
 45 46  2  0
 45 47  1  0
 42 48  1  0
 41 49  1  0
 24 50  1  0
 24 51  1  0
  3 52  1  0
  3 53  1  0
  2 54  1  1
  1 55  1  0
  1 56  1  0
  1 57  1  0
 23  2  1  0
 31 27  1  0
 46 40  1  0
 14  5  1  0
 46 23  1  0
 14  9  1  0
M  END
>  <cnnaffinities>  (32) 
[6.59536, 6.4116, 6.59001, 6.09408, 6.19452]

>  <score>  (32) 
6.59536

>  <index>  (32) 
32

>  <Smiles>  (32) 
C([C@]1(C(N(c2c(nc(c3c(c(c(c(c23)[H])[H])[H])[H])[H])[H])C(=O)[C@]21C(N(C(c1nnnn1C([H])([H])[H])([H])[H])C(=O)c1c(c(c(F)c(c21)[H])[H])[H])([H])[H])([H])[H])[H])([H])([H])[H]

>  <h>  (32) 
<NA>

>  <Training>  (32) 
True

>  <Success>  (32) 
True

>  <enamine_searched>  (32) 
False

>  <enamine_id>  (32) 
nan

$$$$

     RDKit          3D

 66 70  0  0  0  0  0  0  0  0999 V2000
   -7.4067    3.4745  -21.8342 C   0  0  0  0  0  0  0  0  0  0  0  0
   -8.3832    3.0086  -22.8039 N   0  0  0  0  0  0  0  0  0  0  0  0
   -7.9048    2.2478  -23.8314 C   0  0  0  0  0  0  0  0  0  0  0  0
   -6.7133    2.0158  -23.9792 O   0  0  0  0  0  0  0  0  0  0  0  0
   -8.9488    1.6901  -24.7973 C   0  0  0  0  0  0  0  0  0  0  0  0
   -9.5717    0.5038  -24.2479 N   0  0  0  0  0  0  0  0  0  0  0  0
   -8.7866   -0.7124  -24.1180 C   0  0  0  0  0  0  0  0  0  0  0  0
   -9.1211   -1.4964  -22.8226 C   0  0  2  0  0  0  0  0  0  0  0  0
   -8.5741   -0.7411  -21.5920 C   0  0  0  0  0  0  0  0  0  0  0  0
   -9.0456    0.2480  -21.0655 O   0  0  0  0  0  0  0  0  0  0  0  0
   -7.4246   -1.3717  -21.1771 N   0  0  0  0  0  0  0  0  0  0  0  0
   -6.6139   -0.8077  -20.1621 C   0  0  0  0  0  0  0  0  0  0  0  0
   -6.9281   -1.0402  -18.8500 C   0  0  0  0  0  0  0  0  0  0  0  0
   -6.2312   -0.5521  -17.7941 N   0  0  0  0  0  0  0  0  0  0  0  0
   -5.1897    0.1993  -18.0684 C   0  0  0  0  0  0  0  0  0  0  0  0
   -4.7536    0.5242  -19.3850 C   0  0  0  0  0  0  0  0  0  0  0  0
   -3.6283    1.3572  -19.6289 C   0  0  0  0  0  0  0  0  0  0  0  0
   -3.2474    1.6594  -20.9059 C   0  0  0  0  0  0  0  0  0  0  0  0
   -3.9723    1.1485  -22.0072 C   0  0  0  0  0  0  0  0  0  0  0  0
   -5.0664    0.3425  -21.8023 C   0  0  0  0  0  0  0  0  0  0  0  0
   -5.4830    0.0049  -20.4838 C   0  0  0  0  0  0  0  0  0  0  0  0
   -5.6274   -0.0166  -22.6621 H   0  0  0  0  0  0  0  0  0  0  0  0
   -3.6693    1.3988  -23.0192 H   0  0  0  0  0  0  0  0  0  0  0  0
   -2.3889    2.3004  -21.0841 H   0  0  0  0  0  0  0  0  0  0  0  0
   -3.0886    1.7545  -18.7729 H   0  0  0  0  0  0  0  0  0  0  0  0
   -4.6217    0.5927  -17.2234 H   0  0  0  0  0  0  0  0  0  0  0  0
   -7.7937   -1.6545  -18.6131 H   0  0  0  0  0  0  0  0  0  0  0  0
   -7.0666   -2.5392  -21.9575 C   0  0  0  0  0  0  0  0  0  0  0  0
   -8.3432   -2.8438  -22.7548 C   0  0  2  0  0  0  0  0  0  0  0  0
   -8.0405   -3.5469  -24.0808 C   0  0  0  0  0  0  0  0  0  0  0  0
   -9.2088   -3.8196  -24.8252 O   0  0  0  0  0  0  0  0  0  0  0  0
   -9.7996   -5.1013  -24.6027 C   0  0  0  0  0  0  0  0  0  0  0  0
  -11.2908   -4.9092  -24.8110 C   0  0  0  0  0  0  0  0  0  0  0  0
  -11.8390   -5.8513  -24.7049 H   0  0  0  0  0  0  0  0  0  0  0  0
  -11.6844   -4.1863  -24.0919 H   0  0  0  0  0  0  0  0  0  0  0  0
  -11.4588   -4.5191  -25.8179 H   0  0  0  0  0  0  0  0  0  0  0  0
   -9.2100   -6.1420  -25.5566 C   0  0  0  0  0  0  0  0  0  0  0  0
   -9.6782   -7.1218  -25.3962 H   0  0  0  0  0  0  0  0  0  0  0  0
   -8.1292   -6.2555  -25.4099 H   0  0  0  0  0  0  0  0  0  0  0  0
   -9.3859   -5.8379  -26.5945 H   0  0  0  0  0  0  0  0  0  0  0  0
   -9.6050   -5.4234  -23.5646 H   0  0  0  0  0  0  0  0  0  0  0  0
   -7.4656   -4.4695  -23.8947 H   0  0  0  0  0  0  0  0  0  0  0  0
   -7.4196   -2.8980  -24.7099 H   0  0  0  0  0  0  0  0  0  0  0  0
   -8.9598   -3.5237  -22.1646 H   0  0  0  0  0  0  0  0  0  0  0  0
   -6.2162   -2.3309  -22.6259 H   0  0  0  0  0  0  0  0  0  0  0  0
   -6.7772   -3.3633  -21.2981 H   0  0  0  0  0  0  0  0  0  0  0  0
  -10.6282   -1.6158  -22.7288 C   0  0  0  0  0  0  0  0  0  0  0  0
  -11.2208   -2.5585  -21.8819 C   0  0  0  0  0  0  0  0  0  0  0  0
  -12.5964   -2.5872  -21.7418 C   0  0  0  0  0  0  0  0  0  0  0  0
  -13.3208   -3.6424  -20.5687 Cl  0  0  0  0  0  0  0  0  0  0  0  0
  -13.4350   -1.7437  -22.4712 C   0  0  0  0  0  0  0  0  0  0  0  0
  -12.8542   -0.7870  -23.2733 C   0  0  0  0  0  0  0  0  0  0  0  0
  -11.4697   -0.6881  -23.3551 C   0  0  0  0  0  0  0  0  0  0  0  0
  -10.9158    0.5199  -24.0310 C   0  0  0  0  0  0  0  0  0  0  0  0
  -11.6229    1.4722  -24.3403 O   0  0  0  0  0  0  0  0  0  0  0  0
  -13.4447   -0.0599  -23.8177 H   0  0  0  0  0  0  0  0  0  0  0  0
  -14.5104   -1.8147  -22.3525 H   0  0  0  0  0  0  0  0  0  0  0  0
  -10.6163   -3.2427  -21.2953 H   0  0  0  0  0  0  0  0  0  0  0  0
   -8.9834   -1.3770  -24.9667 H   0  0  0  0  0  0  0  0  0  0  0  0
   -7.7254   -0.4440  -24.1312 H   0  0  0  0  0  0  0  0  0  0  0  0
   -9.7570    2.4019  -24.9999 H   0  0  0  0  0  0  0  0  0  0  0  0
   -8.4325    1.4460  -25.7311 H   0  0  0  0  0  0  0  0  0  0  0  0
   -9.3270    2.8532  -22.4680 H   0  0  0  0  0  0  0  0  0  0  0  0
   -6.7941    2.6232  -21.5022 H   0  0  0  0  0  0  0  0  0  0  0  0
   -6.7327    4.1930  -22.3046 H   0  0  0  0  0  0  0  0  0  0  0  0
   -7.8978    3.9848  -20.9993 H   0  0  0  0  0  0  0  0  0  0  0  0
  1  2  1  0
  2  3  1  0
  3  4  2  0
  3  5  1  0
  5  6  1  0
  6  7  1  0
  8  7  1  6
  8  9  1  0
  9 10  2  0
  9 11  1  0
 11 12  1  0
 12 13  2  0
 13 14  1  0
 14 15  2  0
 15 16  1  0
 16 17  2  0
 17 18  1  0
 18 19  2  0
 19 20  1  0
 20 21  2  0
 20 22  1  0
 19 23  1  0
 18 24  1  0
 17 25  1  0
 15 26  1  0
 13 27  1  0
 11 28  1  0
 28 29  1  0
 29 30  1  0
 30 31  1  0
 31 32  1  0
 32 33  1  0
 33 34  1  0
 33 35  1  0
 33 36  1  0
 32 37  1  0
 37 38  1  0
 37 39  1  0
 37 40  1  0
 32 41  1  0
 30 42  1  0
 30 43  1  0
 29 44  1  1
 28 45  1  0
 28 46  1  0
  8 47  1  0
 47 48  2  0
 48 49  1  0
 49 50  1  0
 49 51  2  0
 51 52  1  0
 52 53  2  0
 53 54  1  0
 54 55  2  0
 52 56  1  0
 51 57  1  0
 48 58  1  0
  7 59  1  0
  7 60  1  0
  5 61  1  0
  5 62  1  0
  2 63  1  0
  1 64  1  0
  1 65  1  0
  1 66  1  0
 54  6  1  0
 29  8  1  0
 53 47  1  0
 21 12  1  0
 21 16  1  0
M  END
>  <cnnaffinities>  (33) 
[6.62911, 6.99066, 6.41658, 6.65481, 6.67821]

>  <score>  (33) 
6.62911

>  <index>  (33) 
34

>  <Smiles>  (33) 
C(N(C(=O)C(N1C([C@@]2(C(=O)N(c3c(nc(c4c(c(c(c(c34)[H])[H])[H])[H])[H])[H])C([C@@]2(C(OC(C([H])([H])[H])(C([H])([H])[H])[H])([H])[H])[H])([H])[H])c2c(c(Cl)c(c(c2C1=O)[H])[H])[H])([H])[H])([H])[H])[H])([H])([H])[H]

>  <h>  (33) 
<NA>

>  <Training>  (33) 
True

>  <Success>  (33) 
True

>  <enamine_searched>  (33) 
False

>  <enamine_id>  (33) 
nan

$$$$

     RDKit          3D

 40 42  0  0  0  0  0  0  0  0999 V2000
   -9.0678   -1.8900  -22.8224 O   0  0  0  0  0  0  0  0  0  0  0  0
   -8.1929   -1.1012  -22.4757 C   0  0  0  0  0  0  0  0  0  0  0  0
   -6.8541   -1.6128  -21.9501 C   0  0  0  0  0  0  0  0  0  0  0  0
   -6.3358   -0.8909  -20.7158 C   0  0  0  0  0  0  0  0  0  0  0  0
   -7.0061   -1.0268  -19.5229 C   0  0  0  0  0  0  0  0  0  0  0  0
   -6.6345   -0.4710  -18.3413 N   0  0  0  0  0  0  0  0  0  0  0  0
   -5.5561    0.2768  -18.3515 C   0  0  0  0  0  0  0  0  0  0  0  0
   -4.7713    0.5286  -19.5102 C   0  0  0  0  0  0  0  0  0  0  0  0
   -3.6407    1.3876  -19.4845 C   0  0  0  0  0  0  0  0  0  0  0  0
   -2.9289    1.6391  -20.6280 C   0  0  0  0  0  0  0  0  0  0  0  0
   -3.3140    1.0395  -21.8468 C   0  0  0  0  0  0  0  0  0  0  0  0
   -4.3992    0.1980  -21.8935 C   0  0  0  0  0  0  0  0  0  0  0  0
   -5.1592   -0.0814  -20.7294 C   0  0  0  0  0  0  0  0  0  0  0  0
   -4.6970   -0.2106  -22.8532 H   0  0  0  0  0  0  0  0  0  0  0  0
   -2.7623    1.2596  -22.7554 H   0  0  0  0  0  0  0  0  0  0  0  0
   -2.0668    2.3036  -20.6090 H   0  0  0  0  0  0  0  0  0  0  0  0
   -3.3620    1.8478  -18.5373 H   0  0  0  0  0  0  0  0  0  0  0  0
   -5.2539    0.7256  -17.4017 H   0  0  0  0  0  0  0  0  0  0  0  0
   -7.9068   -1.6414  -19.4749 H   0  0  0  0  0  0  0  0  0  0  0  0
   -7.0539   -2.6644  -21.7053 H   0  0  0  0  0  0  0  0  0  0  0  0
   -6.1062   -1.6151  -22.7538 H   0  0  0  0  0  0  0  0  0  0  0  0
   -8.2917    0.2620  -22.4750 N   0  0  0  0  0  0  0  0  0  0  0  0
   -7.3054    1.1672  -23.1529 C   0  0  0  0  0  0  0  0  0  0  0  0
   -7.8856    2.4483  -23.6961 C   0  0  0  0  0  0  0  0  0  0  0  0
   -9.1631    2.8116  -23.7445 C   0  0  0  0  0  0  0  0  0  0  0  0
   -8.4664    5.4592  -23.0576 C   0  0  0  0  0  0  0  0  0  0  0  0
   -7.9990    4.9288  -21.9458 F   0  0  0  0  0  0  0  0  0  0  0  0
   -9.2730    6.4687  -22.8065 F   0  0  0  0  0  0  0  0  0  0  0  0
   -7.4751    5.8263  -23.8477 F   0  0  0  0  0  0  0  0  0  0  0  0
   -9.5039    1.0056  -22.0629 C   0  0  0  0  0  0  0  0  0  0  0  0
   -9.5243    0.8474  -21.8875 C   0  0  0  0  0  0  0  0  0  0  0  0
  -10.2308    0.4962  -22.8998 H   0  0  0  0  0  0  0  0  0  0  0  0
   -9.8827   -0.0172  -20.6324 H   0  0  0  0  0  0  0  0  0  0  0  0
  -10.4417    1.7455  -21.8277 H   0  0  0  0  0  0  0  0  0  0  0  0
   -8.8283    1.8593  -21.4997 H   0  0  0  0  0  0  0  0  0  0  0  0
   -9.3685    3.8831  -23.8014 H   0  0  0  0  0  0  0  0  0  0  0  0
   -7.1188    3.1521  -24.0181 H   0  0  0  0  0  0  0  0  0  0  0  0
   -9.9430    2.0742  -23.6933 H   0  0  0  0  0  0  0  0  0  0  0  0
   -6.7948    0.6383  -23.9642 H   0  0  0  0  0  0  0  0  0  0  0  0
   -6.5417    1.4446  -22.4184 H   0  0  0  0  0  0  0  0  0  0  0  0
  1  2  2  0
  2  3  1  0
  3  4  1  0
  4  5  2  0
  5  6  1  0
  6  7  2  0
  7  8  1  0
  8  9  2  0
  9 10  1  0
 10 11  2  0
 11 12  1  0
 12 13  2  0
 12 14  1  0
 11 15  1  0
 10 16  1  0
  9 17  1  0
  7 18  1  0
  5 19  1  0
  3 20  1  0
  3 21  1  0
  2 22  1  0
 22 23  1  0
 23 24  1  0
 24 25  1  0
 25 26  1  0
 26 27  1  0
 26 28  1  0
 26 29  1  0
 25 30  1  0
 30 31  1  0
 31 32  1  0
 31 33  1  0
 30 34  1  0
 30 35  1  0
 25 36  1  0
 24 37  1  0
 24 38  1  0
 23 39  1  0
 23 40  1  0
 13  4  1  0
 31 22  1  0
 13  8  1  0
M  END
>  <cnnaffinities>  (34) 
[4.84448, 4.78158, 4.8179]

>  <score>  (34) 
4.84448

>  <index>  (34) 
35

>  <Smiles>  (34) 
O=C(C(c1c(nc(c2c(c(c(c(c12)[H])[H])[H])[H])[H])[H])([H])[H])N1C(C(C(C(F)(F)F)(C(C1([H])[H])([H])[H])[H])([H])[H])([H])[H]

>  <h>  (34) 
<NA>

>  <Training>  (34) 
True

>  <Success>  (34) 
True

>  <enamine_searched>  (34) 
False

>  <enamine_id>  (34) 
nan

$$$$

     RDKit          3D

 47 50  0  0  0  0  0  0  0  0999 V2000
   -8.4981    0.7365  -21.4579 O   0  0  0  0  0  0  0  0  0  0  0  0
   -8.5220   -0.4353  -21.7869 C   0  0  0  0  0  0  0  0  0  0  0  0
   -7.4713   -1.4225  -21.2706 C   0  0  0  0  0  0  0  0  0  0  0  0
   -6.6061   -0.8342  -20.1910 C   0  0  0  0  0  0  0  0  0  0  0  0
   -6.9124   -1.0516  -18.8763 C   0  0  0  0  0  0  0  0  0  0  0  0
   -6.2382   -0.5507  -17.8044 N   0  0  0  0  0  0  0  0  0  0  0  0
   -5.1965    0.2052  -18.0717 C   0  0  0  0  0  0  0  0  0  0  0  0
   -4.7578    0.5208  -19.3852 C   0  0  0  0  0  0  0  0  0  0  0  0
   -3.6267    1.3496  -19.6166 C   0  0  0  0  0  0  0  0  0  0  0  0
   -3.2330    1.6442  -20.8942 C   0  0  0  0  0  0  0  0  0  0  0  0
   -3.9497    1.1259  -21.9952 C   0  0  0  0  0  0  0  0  0  0  0  0
   -5.0503    0.3246  -21.7975 C   0  0  0  0  0  0  0  0  0  0  0  0
   -5.4821   -0.0033  -20.4829 C   0  0  0  0  0  0  0  0  0  0  0  0
   -5.6027   -0.0549  -22.6523 H   0  0  0  0  0  0  0  0  0  0  0  0
   -3.6272    1.3688  -23.0062 H   0  0  0  0  0  0  0  0  0  0  0  0
   -2.3724    2.2882  -21.0689 H   0  0  0  0  0  0  0  0  0  0  0  0
   -3.0923    1.7486  -18.7564 H   0  0  0  0  0  0  0  0  0  0  0  0
   -4.6391    0.6118  -17.2249 H   0  0  0  0  0  0  0  0  0  0  0  0
   -7.7629   -1.6841  -18.6161 H   0  0  0  0  0  0  0  0  0  0  0  0
   -6.8792   -1.7793  -22.1227 H   0  0  0  0  0  0  0  0  0  0  0  0
   -8.0074   -2.2935  -20.8708 H   0  0  0  0  0  0  0  0  0  0  0  0
   -9.5121   -0.9469  -22.5901 N   0  0  0  0  0  0  0  0  0  0  0  0
  -10.6193   -0.0577  -22.9152 C   0  0  0  0  0  0  0  0  0  0  0  0
  -11.9309   -0.8041  -22.7211 C   0  0  0  0  0  0  0  0  0  0  0  0
  -11.9956   -2.1060  -23.5133 C   0  0  0  0  0  0  0  0  0  0  0  0
  -10.7669   -2.9553  -23.1718 C   0  0  0  0  0  0  0  0  0  0  0  0
   -9.4468   -2.1947  -23.3630 C   0  0  1  0  0  0  0  0  0  0  0  0
   -9.0944   -1.9582  -24.8395 C   0  0  0  0  0  0  0  0  0  0  0  0
   -9.7433   -2.6108  -25.8960 C   0  0  0  0  0  0  0  0  0  0  0  0
   -9.3300   -2.4365  -27.2145 C   0  0  0  0  0  0  0  0  0  0  0  0
   -8.3418   -1.5049  -27.5126 C   0  0  0  0  0  0  0  0  0  0  0  0
   -7.7006   -0.8321  -26.4748 C   0  0  0  0  0  0  0  0  0  0  0  0
   -8.0458   -1.0848  -25.1513 C   0  0  0  0  0  0  0  0  0  0  0  0
   -7.5365   -0.5311  -24.3606 H   0  0  0  0  0  0  0  0  0  0  0  0
   -6.9248   -0.1021  -26.6922 H   0  0  0  0  0  0  0  0  0  0  0  0
   -8.0643   -1.3162  -28.5462 H   0  0  0  0  0  0  0  0  0  0  0  0
   -9.7994   -3.0221  -28.0084 H   0  0  0  0  0  0  0  0  0  0  0  0
  -10.5826   -3.2760  -25.7102 H   0  0  0  0  0  0  0  0  0  0  0  0
   -8.6409   -2.7874  -22.9132 H   0  0  0  0  0  0  0  0  0  0  0  0
  -10.8368   -3.2136  -22.1107 H   0  0  0  0  0  0  0  0  0  0  0  0
  -10.7390   -3.8981  -23.7324 H   0  0  0  0  0  0  0  0  0  0  0  0
  -12.9098   -2.6476  -23.2396 H   0  0  0  0  0  0  0  0  0  0  0  0
  -12.0592   -1.9107  -24.5872 H   0  0  0  0  0  0  0  0  0  0  0  0
  -11.9667   -1.1063  -21.6800 H   0  0  0  0  0  0  0  0  0  0  0  0
  -12.7941   -0.1491  -22.8851 H   0  0  0  0  0  0  0  0  0  0  0  0
  -10.5471    0.8057  -22.2481 H   0  0  0  0  0  0  0  0  0  0  0  0
  -10.4859    0.3051  -23.9424 H   0  0  0  0  0  0  0  0  0  0  0  0
  1  2  2  0
  2  3  1  0
  3  4  1  0
  4  5  2  0
  5  6  1  0
  6  7  2  0
  7  8  1  0
  8  9  2  0
  9 10  1  0
 10 11  2  0
 11 12  1  0
 12 13  2  0
 12 14  1  0
 11 15  1  0
 10 16  1  0
  9 17  1  0
  7 18  1  0
  5 19  1  0
  3 20  1  0
  3 21  1  0
  2 22  1  0
 22 23  1  0
 23 24  1  0
 24 25  1  0
 25 26  1  0
 26 27  1  0
 27 28  1  0
 28 29  2  0
 29 30  1  0
 30 31  2  0
 31 32  1  0
 32 33  2  0
 33 34  1  0
 32 35  1  0
 31 36  1  0
 30 37  1  0
 29 38  1  0
 27 39  1  1
 26 40  1  0
 26 41  1  0
 25 42  1  0
 25 43  1  0
 24 44  1  0
 24 45  1  0
 23 46  1  0
 23 47  1  0
 13  4  1  0
 27 22  1  0
 33 28  1  0
 13  8  1  0
M  END
>  <cnnaffinities>  (35) 
[5.03309, 5.2529, 5.27416, 5.51038, 5.51253]

>  <score>  (35) 
5.03309

>  <index>  (35) 
36

>  <Smiles>  (35) 
O=C(C(c1c(nc(c2c(c(c(c(c12)[H])[H])[H])[H])[H])[H])([H])[H])N1C(C(C(C([C@]1(c1c(c(c(c(c1[H])[H])[H])[H])[H])[H])([H])[H])([H])[H])([H])[H])([H])[H]

>  <h>  (35) 
<NA>

>  <Training>  (35) 
True

>  <Success>  (35) 
True

>  <enamine_searched>  (35) 
False

>  <enamine_id>  (35) 
nan

$$$$

     RDKit          3D

 56 60  0  0  0  0  0  0  0  0999 V2000
   -7.3038    3.4495  -21.8985 C   0  0  0  0  0  0  0  0  0  0  0  0
   -8.1377    2.9707  -22.9847 N   0  0  0  0  0  0  0  0  0  0  0  0
   -7.5593    2.2561  -23.9796 C   0  0  0  0  0  0  0  0  0  0  0  0
   -6.3439    2.1252  -24.0710 O   0  0  0  0  0  0  0  0  0  0  0  0
   -8.5076    1.6296  -25.0094 C   0  0  0  0  0  0  0  0  0  0  0  0
   -9.2534    0.4905  -24.5043 N   0  0  0  0  0  0  0  0  0  0  0  0
   -8.5663   -0.7709  -24.3090 C   0  0  0  0  0  0  0  0  0  0  0  0
   -8.9914   -1.4586  -22.9840 C   0  0  2  0  0  0  0  0  0  0  0  0
   -8.4404   -0.6672  -21.7676 C   0  0  0  0  0  0  0  0  0  0  0  0
   -8.8314    0.4048  -21.3480 O   0  0  0  0  0  0  0  0  0  0  0  0
   -7.4086   -1.3774  -21.1991 N   0  0  0  0  0  0  0  0  0  0  0  0
   -6.6069   -0.8053  -20.1734 C   0  0  0  0  0  0  0  0  0  0  0  0
   -6.9088   -1.0422  -18.8570 C   0  0  0  0  0  0  0  0  0  0  0  0
   -6.2081   -0.5508  -17.8043 N   0  0  0  0  0  0  0  0  0  0  0  0
   -5.1698    0.2076  -18.0731 C   0  0  0  0  0  0  0  0  0  0  0  0
   -4.7333    0.5325  -19.3901 C   0  0  0  0  0  0  0  0  0  0  0  0
   -3.6037    1.3629  -19.6358 C   0  0  0  0  0  0  0  0  0  0  0  0
   -3.2127    1.6491  -20.9166 C   0  0  0  0  0  0  0  0  0  0  0  0
   -3.9314    1.1157  -22.0112 C   0  0  0  0  0  0  0  0  0  0  0  0
   -5.0273    0.3126  -21.7982 C   0  0  0  0  0  0  0  0  0  0  0  0
   -5.4675    0.0065  -20.4811 C   0  0  0  0  0  0  0  0  0  0  0  0
   -5.5757   -0.0824  -22.6486 H   0  0  0  0  0  0  0  0  0  0  0  0
   -3.6370    1.3564  -23.0266 H   0  0  0  0  0  0  0  0  0  0  0  0
   -2.3594    2.2957  -21.0975 H   0  0  0  0  0  0  0  0  0  0  0  0
   -3.0711    1.7746  -18.7827 H   0  0  0  0  0  0  0  0  0  0  0  0
   -4.6214    0.6116  -17.2226 H   0  0  0  0  0  0  0  0  0  0  0  0
   -7.7583   -1.6707  -18.6024 H   0  0  0  0  0  0  0  0  0  0  0  0
   -7.0885   -2.6148  -21.8821 C   0  0  0  0  0  0  0  0  0  0  0  0
   -8.2973   -2.8539  -22.8178 C   0  0  2  0  0  0  0  0  0  0  0  0
   -7.8912   -3.5978  -24.0991 C   0  0  0  0  0  0  0  0  0  0  0  0
   -7.4774   -4.5857  -23.8606 H   0  0  0  0  0  0  0  0  0  0  0  0
   -8.7421   -3.7495  -24.7733 H   0  0  0  0  0  0  0  0  0  0  0  0
   -7.1198   -3.0491  -24.6553 H   0  0  0  0  0  0  0  0  0  0  0  0
   -9.0130   -3.4834  -22.2833 H   0  0  0  0  0  0  0  0  0  0  0  0
   -6.1500   -2.5263  -22.4546 H   0  0  0  0  0  0  0  0  0  0  0  0
   -6.9487   -3.4293  -21.1587 H   0  0  0  0  0  0  0  0  0  0  0  0
  -10.5131   -1.4638  -22.9146 C   0  0  0  0  0  0  0  0  0  0  0  0
  -11.1761   -2.2991  -22.0086 C   0  0  0  0  0  0  0  0  0  0  0  0
  -12.5577   -2.3007  -21.9141 C   0  0  0  0  0  0  0  0  0  0  0  0
  -13.3138   -1.4358  -22.7092 C   0  0  0  0  0  0  0  0  0  0  0  0
  -12.6713   -0.5483  -23.5524 C   0  0  0  0  0  0  0  0  0  0  0  0
  -11.2776   -0.5303  -23.6273 C   0  0  0  0  0  0  0  0  0  0  0  0
  -10.6127    0.5898  -24.3767 C   0  0  0  0  0  0  0  0  0  0  0  0
  -11.2384    1.5509  -24.8023 O   0  0  0  0  0  0  0  0  0  0  0  0
  -13.2166    0.1765  -24.1451 H   0  0  0  0  0  0  0  0  0  0  0  0
  -14.3968   -1.4337  -22.6359 H   0  0  0  0  0  0  0  0  0  0  0  0
  -13.0478   -2.9653  -21.2089 H   0  0  0  0  0  0  0  0  0  0  0  0
  -10.6055   -2.9416  -21.3432 H   0  0  0  0  0  0  0  0  0  0  0  0
   -7.4937   -0.5484  -24.2783 H   0  0  0  0  0  0  0  0  0  0  0  0
   -8.7654   -1.4577  -25.1499 H   0  0  0  0  0  0  0  0  0  0  0  0
   -7.8709    1.3389  -25.8514 H   0  0  0  0  0  0  0  0  0  0  0  0
   -9.2682    2.3346  -25.3597 H   0  0  0  0  0  0  0  0  0  0  0  0
   -9.1449    2.9355  -22.8700 H   0  0  0  0  0  0  0  0  0  0  0  0
   -6.7295    2.6143  -21.4580 H   0  0  0  0  0  0  0  0  0  0  0  0
   -6.5849    4.1979  -22.2595 H   0  0  0  0  0  0  0  0  0  0  0  0
   -7.9560    3.9163  -21.1573 H   0  0  0  0  0  0  0  0  0  0  0  0
  1  2  1  0
  2  3  1  0
  3  4  2  0
  3  5  1  0
  5  6  1  0
  6  7  1  0
  8  7  1  6
  8  9  1  0
  9 10  2  0
  9 11  1  0
 11 12  1  0
 12 13  2  0
 13 14  1  0
 14 15  2  0
 15 16  1  0
 16 17  2  0
 17 18  1  0
 18 19  2  0
 19 20  1  0
 20 21  2  0
 20 22  1  0
 19 23  1  0
 18 24  1  0
 17 25  1  0
 15 26  1  0
 13 27  1  0
 11 28  1  0
 28 29  1  0
 29 30  1  0
 30 31  1  0
 30 32  1  0
 30 33  1  0
 29 34  1  1
 28 35  1  0
 28 36  1  0
  8 37  1  0
 37 38  2  0
 38 39  1  0
 39 40  2  0
 40 41  1  0
 41 42  2  0
 42 43  1  0
 43 44  2  0
 41 45  1  0
 40 46  1  0
 39 47  1  0
 38 48  1  0
  7 49  1  0
  7 50  1  0
  5 51  1  0
  5 52  1  0
  2 53  1  0
  1 54  1  0
  1 55  1  0
  1 56  1  0
 43  6  1  0
 29  8  1  0
 42 37  1  0
 21 12  1  0
 21 16  1  0
M  END
>  <cnnaffinities>  (36) 
[6.28833, 6.27005]

>  <score>  (36) 
6.28833

>  <index>  (36) 
37

>  <Smiles>  (36) 
C(N(C(=O)C(N1C([C@@]2(C(=O)N(c3c(nc(c4c(c(c(c(c34)[H])[H])[H])[H])[H])[H])C([C@@]2(C([H])([H])[H])[H])([H])[H])c2c(c(c(c(c2C1=O)[H])[H])[H])[H])([H])[H])([H])[H])[H])([H])([H])[H]

>  <h>  (36) 
<NA>

>  <Training>  (36) 
True

>  <Success>  (36) 
True

>  <enamine_searched>  (36) 
False

>  <enamine_id>  (36) 
nan

$$$$

     RDKit          3D

 46 48  0  0  0  0  0  0  0  0999 V2000
   -8.1633   -4.7066  -26.5354 C   0  0  0  0  0  0  0  0  0  0  0  0
   -8.6597   -4.9679  -25.1129 C   0  0  1  0  0  0  0  0  0  0  0  0
   -7.6025   -5.5337  -24.1726 C   0  0  0  0  0  0  0  0  0  0  0  0
   -6.6322   -4.5304  -23.5519 C   0  0  1  0  0  0  0  0  0  0  0  0
   -5.4548   -4.1814  -24.4614 C   0  0  0  0  0  0  0  0  0  0  0  0
   -4.6949   -3.7266  -23.8478 H   0  0  0  0  0  0  0  0  0  0  0  0
   -5.6833   -3.4447  -25.2298 H   0  0  0  0  0  0  0  0  0  0  0  0
   -5.0207   -5.0704  -24.9368 H   0  0  0  0  0  0  0  0  0  0  0  0
   -7.3284   -3.3427  -23.0086 N   0  0  0  0  0  0  0  0  0  0  0  0
   -6.7260   -2.7049  -21.9383 C   0  0  0  0  0  0  0  0  0  0  0  0
   -5.6818   -3.1192  -21.4562 O   0  0  0  0  0  0  0  0  0  0  0  0
   -7.4074   -1.4700  -21.2819 C   0  0  0  0  0  0  0  0  0  0  0  0
   -6.5798   -0.8338  -20.1851 C   0  0  0  0  0  0  0  0  0  0  0  0
   -6.8723   -1.0479  -18.8622 C   0  0  0  0  0  0  0  0  0  0  0  0
   -6.1948   -0.5429  -17.7926 N   0  0  0  0  0  0  0  0  0  0  0  0
   -5.1612    0.2203  -18.0614 C   0  0  0  0  0  0  0  0  0  0  0  0
   -4.7231    0.5286  -19.3793 C   0  0  0  0  0  0  0  0  0  0  0  0
   -3.5947    1.3571  -19.6217 C   0  0  0  0  0  0  0  0  0  0  0  0
   -3.1921    1.6349  -20.9006 C   0  0  0  0  0  0  0  0  0  0  0  0
   -3.9046    1.0919  -21.9941 C   0  0  0  0  0  0  0  0  0  0  0  0
   -5.0009    0.2901  -21.7856 C   0  0  0  0  0  0  0  0  0  0  0  0
   -5.4460   -0.0136  -20.4726 C   0  0  0  0  0  0  0  0  0  0  0  0
   -5.5335   -0.1236  -22.6370 H   0  0  0  0  0  0  0  0  0  0  0  0
   -3.5808    1.3167  -23.0051 H   0  0  0  0  0  0  0  0  0  0  0  0
   -2.3310    2.2723  -21.0872 H   0  0  0  0  0  0  0  0  0  0  0  0
   -3.0554    1.7726  -18.7720 H   0  0  0  0  0  0  0  0  0  0  0  0
   -4.6031    0.6271  -17.2152 H   0  0  0  0  0  0  0  0  0  0  0  0
   -7.7194   -1.6711  -18.5878 H   0  0  0  0  0  0  0  0  0  0  0  0
   -7.6715   -0.7120  -22.0313 H   0  0  0  0  0  0  0  0  0  0  0  0
   -8.3585   -1.8066  -20.8478 H   0  0  0  0  0  0  0  0  0  0  0  0
   -8.4101   -2.7241  -23.7917 C   0  0  1  0  0  0  0  0  0  0  0  0
   -7.9411   -1.6660  -24.8005 C   0  0  0  0  0  0  0  0  0  0  0  0
   -7.4453   -2.0951  -25.6736 H   0  0  0  0  0  0  0  0  0  0  0  0
   -8.7973   -1.0898  -25.1721 H   0  0  0  0  0  0  0  0  0  0  0  0
   -7.2449   -0.9568  -24.3450 H   0  0  0  0  0  0  0  0  0  0  0  0
   -9.3300   -3.7829  -24.4198 C   0  0  0  0  0  0  0  0  0  0  0  0
   -9.9826   -4.1715  -23.6313 H   0  0  0  0  0  0  0  0  0  0  0  0
   -9.9963   -3.2861  -25.1302 H   0  0  0  0  0  0  0  0  0  0  0  0
   -9.0324   -2.1976  -23.0629 H   0  0  0  0  0  0  0  0  0  0  0  0
   -6.1949   -5.0207  -22.6791 H   0  0  0  0  0  0  0  0  0  0  0  0
   -8.0992   -6.0628  -23.3559 H   0  0  0  0  0  0  0  0  0  0  0  0
   -7.0205   -6.2942  -24.7017 H   0  0  0  0  0  0  0  0  0  0  0  0
   -9.4331   -5.7428  -25.2148 H   0  0  0  0  0  0  0  0  0  0  0  0
   -7.9291   -5.6517  -27.0370 H   0  0  0  0  0  0  0  0  0  0  0  0
   -8.9335   -4.2080  -27.1320 H   0  0  0  0  0  0  0  0  0  0  0  0
   -7.2615   -4.0932  -26.5774 H   0  0  0  0  0  0  0  0  0  0  0  0
  1  2  1  0
  2  3  1  0
  3  4  1  0
  4  5  1  0
  5  6  1  0
  5  7  1  0
  5  8  1  0
  4  9  1  0
  9 10  1  0
 10 11  2  0
 10 12  1  0
 12 13  1  0
 13 14  2  0
 14 15  1  0
 15 16  2  0
 16 17  1  0
 17 18  2  0
 18 19  1  0
 19 20  2  0
 20 21  1  0
 21 22  2  0
 21 23  1  0
 20 24  1  0
 19 25  1  0
 18 26  1  0
 16 27  1  0
 14 28  1  0
 12 29  1  0
 12 30  1  0
  9 31  1  0
 31 32  1  0
 32 33  1  0
 32 34  1  0
 32 35  1  0
 31 36  1  0
 36 37  1  0
 36 38  1  0
 31 39  1  1
  4 40  1  1
  3 41  1  0
  3 42  1  0
  2 43  1  6
  1 44  1  0
  1 45  1  0
  1 46  1  0
 36  2  1  0
 22 13  1  0
 22 17  1  0
M  END
>  <cnnaffinities>  (37) 
[5.17551]

>  <score>  (37) 
5.17551

>  <index>  (37) 
38

>  <Smiles>  (37) 
C([C@]1(C([C@@](C([H])([H])[H])(N(C(=O)C(c2c(nc(c3c(c(c(c(c23)[H])[H])[H])[H])[H])[H])([H])[H])[C@@](C([H])([H])[H])(C1([H])[H])[H])[H])([H])[H])[H])([H])([H])[H]

>  <h>  (37) 
<NA>

>  <Training>  (37) 
True

>  <Success>  (37) 
True

>  <enamine_searched>  (37) 
False

>  <enamine_id>  (37) 
nan

$$$$

     RDKit          3D

 40 44  0  0  0  0  0  0  0  0999 V2000
   -7.2402    0.9282  -25.5985 C   0  0  0  0  0  0  0  0  0  0  0  0
   -6.5114   -0.3938  -25.4052 C   0  0  0  0  0  0  0  0  0  0  0  0
   -5.2991   -0.5058  -25.5317 O   0  0  0  0  0  0  0  0  0  0  0  0
   -7.2732   -1.4752  -25.0822 N   0  0  0  0  0  0  0  0  0  0  0  0
   -6.6394   -2.7666  -24.7372 C   0  0  0  0  0  0  0  0  0  0  0  0
   -7.8112   -3.4854  -24.0460 C   0  0  2  0  0  0  0  0  0  0  0  0
   -9.0037   -2.9598  -24.8628 C   0  0  0  0  0  0  0  0  0  0  0  0
   -8.6613   -1.4868  -24.5565 C   0  0  1  0  0  0  0  0  0  0  0  0
   -8.5648   -1.5543  -23.0864 C   0  0  0  0  0  0  0  0  0  0  0  0
   -8.1635   -0.6124  -22.0838 C   0  0  0  0  0  0  0  0  0  0  0  0
   -8.3445    0.5792  -21.9878 O   0  0  0  0  0  1  0  0  0  0  0  0
   -7.4003   -1.3909  -21.1799 N   0  0  0  0  0  0  0  0  0  0  0  0
   -6.5824   -0.8257  -20.1689 C   0  0  0  0  0  0  0  0  0  0  0  0
   -6.8945   -1.0594  -18.8560 C   0  0  0  0  0  0  0  0  0  0  0  0
   -6.2072   -0.5471  -17.8055 N   0  0  0  0  0  0  0  0  0  0  0  0
   -5.1737    0.2126  -18.0777 C   0  0  0  0  0  0  0  0  0  0  0  0
   -4.7311    0.5269  -19.3947 C   0  0  0  0  0  0  0  0  0  0  0  0
   -3.5971    1.3519  -19.6295 C   0  0  0  0  0  0  0  0  0  0  0  0
   -3.1860    1.6230  -20.9052 C   0  0  0  0  0  0  0  0  0  0  0  0
   -3.8841    1.0709  -22.0047 C   0  0  0  0  0  0  0  0  0  0  0  0
   -4.9784    0.2671  -21.8048 C   0  0  0  0  0  0  0  0  0  0  0  0
   -5.4473   -0.0113  -20.4878 C   0  0  0  0  0  0  0  0  0  0  0  0
   -5.4860   -0.1545  -22.6706 H   0  0  0  0  0  0  0  0  0  0  0  0
   -3.5610    1.2905  -23.0189 H   0  0  0  0  0  0  0  0  0  0  0  0
   -2.3275    2.2665  -21.0838 H   0  0  0  0  0  0  0  0  0  0  0  0
   -3.0747    1.7657  -18.7712 H   0  0  0  0  0  0  0  0  0  0  0  0
   -4.6289    0.6170  -17.2241 H   0  0  0  0  0  0  0  0  0  0  0  0
   -7.7443   -1.6874  -18.6041 H   0  0  0  0  0  0  0  0  0  0  0  0
   -7.2571   -2.7114  -21.6273 C   0  0  0  0  0  0  0  0  0  0  0  0
   -6.5491   -3.5622  -21.1451 O   0  0  0  0  0  0  0  0  0  0  0  0
   -8.0618   -2.7870  -22.7614 N   0  0  0  0  0  0  0  0  0  0  0  0
   -9.2792   -0.6912  -24.9816 H   0  0  0  0  0  0  0  0  0  0  0  0
   -9.9653   -3.2779  -24.4630 H   0  0  0  0  0  0  0  0  0  0  0  0
   -8.9250   -3.1973  -25.9280 H   0  0  0  0  0  0  0  0  0  0  0  0
   -7.7007   -4.5529  -23.9042 H   0  0  0  0  0  0  0  0  0  0  0  0
   -5.7892   -2.6297  -24.0598 H   0  0  0  0  0  0  0  0  0  0  0  0
   -6.2956   -3.2679  -25.6442 H   0  0  0  0  0  0  0  0  0  0  0  0
   -6.4885    1.6571  -25.9044 H   0  0  0  0  0  0  0  0  0  0  0  0
   -7.7257    1.2559  -24.6713 H   0  0  0  0  0  0  0  0  0  0  0  0
   -8.0201    0.8639  -26.3673 H   0  0  0  0  0  0  0  0  0  0  0  0
  1  2  1  0
  2  3  2  0
  2  4  1  0
  4  5  1  0
  5  6  1  0
  6  7  1  0
  7  8  1  0
  8  9  1  0
  9 10  2  0
 10 11  1  0
 10 12  1  0
 12 13  1  0
 13 14  2  0
 14 15  1  0
 15 16  2  0
 16 17  1  0
 17 18  2  0
 18 19  1  0
 19 20  2  0
 20 21  1  0
 21 22  2  0
 21 23  1  0
 20 24  1  0
 19 25  1  0
 18 26  1  0
 16 27  1  0
 14 28  1  0
 12 29  1  0
 29 30  2  0
 29 31  1  0
  8 32  1  1
  7 33  1  0
  7 34  1  0
  6 35  1  1
  5 36  1  0
  5 37  1  0
  1 38  1  0
  1 39  1  0
  1 40  1  0
  8  4  1  0
 31  9  1  0
 31  6  1  0
 22 13  1  0
 22 17  1  0
M  CHG  1  11  -1
M  END
>  <cnnaffinities>  (38) 
[5.32899, 5.36626, 5.29928, 5.31956, 5.46173]

>  <score>  (38) 
5.32899

>  <index>  (38) 
39

>  <Smiles>  (38) 
C(C(=O)N1C([C@@]2(C([C@]1(c1c([O-])n(c3c(nc(c4c(c(c(c(c34)[H])[H])[H])[H])[H])[H])c(=O)n21)[H])([H])[H])[H])([H])[H])([H])([H])[H]

>  <h>  (38) 
<NA>

>  <Training>  (38) 
True

>  <Success>  (38) 
True

>  <enamine_searched>  (38) 
False

>  <enamine_id>  (38) 
nan

$$$$

     RDKit          3D

 40 42  0  0  0  0  0  0  0  0999 V2000
   -6.4970    1.4265  -26.8583 C   0  0  0  0  0  0  0  0  0  0  0  0
   -7.5012    1.0189  -25.7825 C   0  0  0  0  0  0  0  0  0  0  0  0
   -7.3101   -0.4350  -25.3652 C   0  0  0  0  0  0  0  0  0  0  0  0
   -8.2780   -0.8314  -24.2609 C   0  0  0  0  0  0  0  0  0  0  0  0
   -8.1772    0.0874  -23.1317 N   0  0  0  0  0  0  0  0  0  0  0  0
   -8.3751   -0.3124  -21.8068 C   0  0  0  0  0  0  0  0  0  0  0  0
   -9.1732    0.2282  -21.0727 O   0  0  0  0  0  0  0  0  0  0  0  0
   -7.4425   -1.4117  -21.2717 C   0  0  0  0  0  0  0  0  0  0  0  0
   -6.5705   -0.8346  -20.1740 C   0  0  0  0  0  0  0  0  0  0  0  0
   -6.8773   -1.0415  -18.8546 C   0  0  0  0  0  0  0  0  0  0  0  0
   -6.1962   -0.5354  -17.7898 N   0  0  0  0  0  0  0  0  0  0  0  0
   -5.1580    0.2200  -18.0621 C   0  0  0  0  0  0  0  0  0  0  0  0
   -4.7240    0.5338  -19.3782 C   0  0  0  0  0  0  0  0  0  0  0  0
   -3.6027    1.3685  -19.6214 C   0  0  0  0  0  0  0  0  0  0  0  0
   -3.2131    1.6629  -20.9001 C   0  0  0  0  0  0  0  0  0  0  0  0
   -3.9322    1.1290  -21.9941 C   0  0  0  0  0  0  0  0  0  0  0  0
   -5.0193    0.3166  -21.7849 C   0  0  0  0  0  0  0  0  0  0  0  0
   -5.4497   -0.0022  -20.4702 C   0  0  0  0  0  0  0  0  0  0  0  0
   -5.5524   -0.0877  -22.6386 H   0  0  0  0  0  0  0  0  0  0  0  0
   -3.6166    1.3669  -23.0062 H   0  0  0  0  0  0  0  0  0  0  0  0
   -2.3592    2.3105  -21.0842 H   0  0  0  0  0  0  0  0  0  0  0  0
   -3.0634    1.7799  -18.7713 H   0  0  0  0  0  0  0  0  0  0  0  0
   -4.6031    0.6265  -17.2145 H   0  0  0  0  0  0  0  0  0  0  0  0
   -7.7294   -1.6619  -18.5831 H   0  0  0  0  0  0  0  0  0  0  0  0
   -8.0695   -2.2036  -20.8451 H   0  0  0  0  0  0  0  0  0  0  0  0
   -6.8334   -1.8486  -22.0733 H   0  0  0  0  0  0  0  0  0  0  0  0
   -8.3911    1.4916  -23.4642 C   0  0  0  0  0  0  0  0  0  0  0  0
   -7.4154    1.9209  -24.5561 C   0  0  0  0  0  0  0  0  0  0  0  0
   -7.6019    2.9615  -24.8416 H   0  0  0  0  0  0  0  0  0  0  0  0
   -6.3938    1.8965  -24.1551 H   0  0  0  0  0  0  0  0  0  0  0  0
   -9.4242    1.6923  -23.7878 H   0  0  0  0  0  0  0  0  0  0  0  0
   -8.2317    2.0722  -22.5557 H   0  0  0  0  0  0  0  0  0  0  0  0
   -8.0793   -1.8417  -23.9070 H   0  0  0  0  0  0  0  0  0  0  0  0
   -9.3007   -0.8430  -24.6782 H   0  0  0  0  0  0  0  0  0  0  0  0
   -7.4337   -1.0952  -26.2311 H   0  0  0  0  0  0  0  0  0  0  0  0
   -6.2847   -0.5783  -25.0069 H   0  0  0  0  0  0  0  0  0  0  0  0
   -8.5120    1.1201  -26.2013 H   0  0  0  0  0  0  0  0  0  0  0  0
   -5.4704    1.3390  -26.4825 H   0  0  0  0  0  0  0  0  0  0  0  0
   -6.5760    0.7867  -27.7449 H   0  0  0  0  0  0  0  0  0  0  0  0
   -6.6429    2.4655  -27.1753 H   0  0  0  0  0  0  0  0  0  0  0  0
  1  2  1  0
  2  3  1  0
  3  4  1  0
  4  5  1  0
  5  6  1  0
  6  7  2  0
  6  8  1  0
  8  9  1  0
  9 10  2  0
 10 11  1  0
 11 12  2  0
 12 13  1  0
 13 14  2  0
 14 15  1  0
 15 16  2  0
 16 17  1  0
 17 18  2  0
 17 19  1  0
 16 20  1  0
 15 21  1  0
 14 22  1  0
 12 23  1  0
 10 24  1  0
  8 25  1  0
  8 26  1  0
  5 27  1  0
 27 28  1  0
 28 29  1  0
 28 30  1  0
 27 31  1  0
 27 32  1  0
  4 33  1  0
  4 34  1  0
  3 35  1  0
  3 36  1  0
  2 37  1  0
  1 38  1  0
  1 39  1  0
  1 40  1  0
 28  2  1  0
 18  9  1  0
 18 13  1  0
M  END
>  <cnnaffinities>  (39) 
[4.79914, 4.79912, 4.86207, 4.86209, 4.59854, 4.59985, 4.94982, 4.8191, 4.81907, 4.97359, 4.97497, 4.82441, 4.70518, 4.70519]

>  <score>  (39) 
4.79914

>  <index>  (39) 
40

>  <Smiles>  (39) 
C(C1(C(C(N(C(=O)C(c2c(nc(c3c(c(c(c(c23)[H])[H])[H])[H])[H])[H])([H])[H])C(C1([H])[H])([H])[H])([H])[H])([H])[H])[H])([H])([H])[H]

>  <h>  (39) 
<NA>

>  <Training>  (39) 
True

>  <Success>  (39) 
True

>  <enamine_searched>  (39) 
False

>  <enamine_id>  (39) 
nan

$$$$

     RDKit          3D

 67 71  0  0  0  0  0  0  0  0999 V2000
   -7.4617    3.0974  -22.2108 C   0  0  0  0  0  0  0  0  0  0  0  0
   -8.5532    2.4726  -22.9242 N   0  0  0  0  0  0  0  0  0  0  0  0
   -8.3287    1.6657  -23.9887 C   0  0  0  0  0  0  0  0  0  0  0  0
   -7.2075    1.3793  -24.3884 O   0  0  0  0  0  0  0  0  0  0  0  0
   -9.6025    1.1564  -24.6716 C   0  0  0  0  0  0  0  0  0  0  0  0
  -10.1293   -0.0526  -24.0621 N   0  0  0  0  0  0  0  0  0  0  0  0
   -9.2778   -1.2231  -23.9536 C   0  0  0  0  0  0  0  0  0  0  0  0
   -9.3951   -1.9093  -22.5639 C   0  0  2  0  0  0  0  0  0  0  0  0
   -8.7946   -0.9670  -21.4776 C   0  0  0  0  0  0  0  0  0  0  0  0
   -9.3212    0.0189  -20.9984 O   0  0  0  0  0  0  0  0  0  0  0  0
   -7.5114   -1.3914  -21.1870 N   0  0  0  0  0  0  0  0  0  0  0  0
   -6.7267   -0.8043  -20.1586 C   0  0  0  0  0  0  0  0  0  0  0  0
   -7.0260   -1.0459  -18.8385 C   0  0  0  0  0  0  0  0  0  0  0  0
   -6.3077   -0.5720  -17.7911 N   0  0  0  0  0  0  0  0  0  0  0  0
   -5.2556    0.1635  -18.0638 C   0  0  0  0  0  0  0  0  0  0  0  0
   -4.8262    0.4924  -19.3802 C   0  0  0  0  0  0  0  0  0  0  0  0
   -3.6838    1.3041  -19.6258 C   0  0  0  0  0  0  0  0  0  0  0  0
   -3.3112    1.6101  -20.9060 C   0  0  0  0  0  0  0  0  0  0  0  0
   -4.0676    1.1337  -21.9999 C   0  0  0  0  0  0  0  0  0  0  0  0
   -5.1834    0.3539  -21.7874 C   0  0  0  0  0  0  0  0  0  0  0  0
   -5.5845    0.0003  -20.4701 C   0  0  0  0  0  0  0  0  0  0  0  0
   -5.7868    0.0501  -22.6366 H   0  0  0  0  0  0  0  0  0  0  0  0
   -3.7776    1.3906  -23.0151 H   0  0  0  0  0  0  0  0  0  0  0  0
   -2.4441    2.2412  -21.0906 H   0  0  0  0  0  0  0  0  0  0  0  0
   -3.1252    1.6865  -18.7750 H   0  0  0  0  0  0  0  0  0  0  0  0
   -4.6845    0.5438  -17.2164 H   0  0  0  0  0  0  0  0  0  0  0  0
   -7.8844   -1.6629  -18.5832 H   0  0  0  0  0  0  0  0  0  0  0  0
   -7.0886   -2.5410  -21.9654 C   0  0  0  0  0  0  0  0  0  0  0  0
   -8.4330   -3.1363  -22.4476 C   0  0  2  0  0  0  0  0  0  0  0  0
   -8.3222   -3.9802  -23.7243 C   0  0  0  0  0  0  0  0  0  0  0  0
   -7.3094   -5.4480  -23.5098 S   0  0  0  0  0  0  0  0  0  0  0  0
   -5.9263   -5.0129  -23.3935 O   0  0  0  0  0  0  0  0  0  0  0  0
   -7.9293   -6.2761  -22.4856 O   0  0  0  0  0  0  0  0  0  0  0  0
   -7.4276   -6.2691  -24.9482 N   0  0  0  0  0  0  0  0  0  0  0  0
   -8.6723   -6.9766  -25.2080 C   0  0  0  0  0  0  0  0  0  0  0  0
   -9.4913   -6.3113  -25.5279 H   0  0  0  0  0  0  0  0  0  0  0  0
   -8.4880   -7.7134  -25.9969 H   0  0  0  0  0  0  0  0  0  0  0  0
   -8.9615   -7.5016  -24.2946 H   0  0  0  0  0  0  0  0  0  0  0  0
   -6.7387   -5.6931  -26.0944 C   0  0  0  0  0  0  0  0  0  0  0  0
   -7.2807   -4.8429  -26.5408 H   0  0  0  0  0  0  0  0  0  0  0  0
   -6.6223   -6.4760  -26.8515 H   0  0  0  0  0  0  0  0  0  0  0  0
   -5.7473   -5.3678  -25.7697 H   0  0  0  0  0  0  0  0  0  0  0  0
   -9.3119   -4.3090  -24.0585 H   0  0  0  0  0  0  0  0  0  0  0  0
   -7.8542   -3.4006  -24.5269 H   0  0  0  0  0  0  0  0  0  0  0  0
   -8.7994   -3.7844  -21.6448 H   0  0  0  0  0  0  0  0  0  0  0  0
   -6.4576   -2.2432  -22.8203 H   0  0  0  0  0  0  0  0  0  0  0  0
   -6.5120   -3.2436  -21.3563 H   0  0  0  0  0  0  0  0  0  0  0  0
  -10.8841   -2.1681  -22.3490 C   0  0  0  0  0  0  0  0  0  0  0  0
  -11.3697   -3.2006  -21.5416 C   0  0  0  0  0  0  0  0  0  0  0  0
  -12.7033   -3.2318  -21.1685 C   0  0  0  0  0  0  0  0  0  0  0  0
  -13.1337   -4.0967  -20.2351 F   0  0  0  0  0  0  0  0  0  0  0  0
  -13.6519   -2.3617  -21.6816 C   0  0  0  0  0  0  0  0  0  0  0  0
  -13.1921   -1.3811  -22.5327 C   0  0  0  0  0  0  0  0  0  0  0  0
  -11.8379   -1.2643  -22.8450 C   0  0  0  0  0  0  0  0  0  0  0  0
  -11.4349   -0.0746  -23.6610 C   0  0  0  0  0  0  0  0  0  0  0  0
  -12.2289    0.8131  -23.9284 O   0  0  0  0  0  0  0  0  0  0  0  0
  -13.8612   -0.6462  -22.9576 H   0  0  0  0  0  0  0  0  0  0  0  0
  -14.6921   -2.4590  -21.3856 H   0  0  0  0  0  0  0  0  0  0  0  0
  -10.7120   -3.9524  -21.1248 H   0  0  0  0  0  0  0  0  0  0  0  0
   -9.5495   -1.9458  -24.7358 H   0  0  0  0  0  0  0  0  0  0  0  0
   -8.2528   -0.8889  -24.1192 H   0  0  0  0  0  0  0  0  0  0  0  0
   -9.3679    0.9909  -25.7272 H   0  0  0  0  0  0  0  0  0  0  0  0
  -10.4053    1.8960  -24.6129 H   0  0  0  0  0  0  0  0  0  0  0  0
   -9.4455    2.3897  -22.4642 H   0  0  0  0  0  0  0  0  0  0  0  0
   -7.8355    3.9924  -21.7047 H   0  0  0  0  0  0  0  0  0  0  0  0
   -6.9889    2.3936  -21.5105 H   0  0  0  0  0  0  0  0  0  0  0  0
   -6.7135    3.4022  -22.9433 H   0  0  0  0  0  0  0  0  0  0  0  0
  1  2  1  0
  2  3  1  0
  3  4  2  0
  3  5  1  0
  5  6  1  0
  6  7  1  0
  8  7  1  6
  8  9  1  0
  9 10  2  0
  9 11  1  0
 11 12  1  0
 12 13  2  0
 13 14  1  0
 14 15  2  0
 15 16  1  0
 16 17  2  0
 17 18  1  0
 18 19  2  0
 19 20  1  0
 20 21  2  0
 20 22  1  0
 19 23  1  0
 18 24  1  0
 17 25  1  0
 15 26  1  0
 13 27  1  0
 11 28  1  0
 28 29  1  0
 29 30  1  0
 30 31  1  0
 31 32  2  0
 31 33  2  0
 31 34  1  0
 34 35  1  0
 35 36  1  0
 35 37  1  0
 35 38  1  0
 34 39  1  0
 39 40  1  0
 39 41  1  0
 39 42  1  0
 30 43  1  0
 30 44  1  0
 29 45  1  1
 28 46  1  0
 28 47  1  0
  8 48  1  0
 48 49  2  0
 49 50  1  0
 50 51  1  0
 50 52  2  0
 52 53  1  0
 53 54  2  0
 54 55  1  0
 55 56  2  0
 53 57  1  0
 52 58  1  0
 49 59  1  0
  7 60  1  0
  7 61  1  0
  5 62  1  0
  5 63  1  0
  2 64  1  0
  1 65  1  0
  1 66  1  0
  1 67  1  0
 55  6  1  0
 29  8  1  0
 54 48  1  0
 21 12  1  0
 21 16  1  0
M  END
>  <cnnaffinities>  (40) 
[7.11468, 7.07417, 7.08381, 7.11663, 6.70516]

>  <score>  (40) 
7.11468

>  <index>  (40) 
41

>  <Smiles>  (40) 
C(N(C(=O)C(N1C([C@@]2(C(=O)N(c3c(nc(c4c(c(c(c(c34)[H])[H])[H])[H])[H])[H])C([C@@]2(C(S(=O)(=O)N(C([H])([H])[H])C([H])([H])[H])([H])[H])[H])([H])[H])c2c(c(F)c(c(c2C1=O)[H])[H])[H])([H])[H])([H])[H])[H])([H])([H])[H]

>  <h>  (40) 
<NA>

>  <Training>  (40) 
True

>  <Success>  (40) 
True

>  <enamine_searched>  (40) 
False

>  <enamine_id>  (40) 
nan

$$$$

     RDKit          3D

 67 72  0  0  0  0  0  0  0  0999 V2000
   -7.4058    3.4636  -21.9665 C   0  0  0  0  0  0  0  0  0  0  0  0
   -8.4587    2.8880  -22.7875 N   0  0  0  0  0  0  0  0  0  0  0  0
   -8.0885    2.1591  -23.8745 C   0  0  0  0  0  0  0  0  0  0  0  0
   -6.9107    1.9528  -24.1308 O   0  0  0  0  0  0  0  0  0  0  0  0
   -9.2032    1.5861  -24.7552 C   0  0  0  0  0  0  0  0  0  0  0  0
   -9.7692    0.3912  -24.1574 N   0  0  0  0  0  0  0  0  0  0  0  0
   -8.9391   -0.8029  -24.0631 C   0  0  0  0  0  0  0  0  0  0  0  0
   -9.2173   -1.6107  -22.7616 C   0  0  2  0  0  0  0  0  0  0  0  0
   -8.6661   -0.8019  -21.5545 C   0  0  0  0  0  0  0  0  0  0  0  0
   -9.1662    0.1715  -21.0277 O   0  0  0  0  0  0  0  0  0  0  0  0
   -7.4630   -1.3497  -21.1695 N   0  0  0  0  0  0  0  0  0  0  0  0
   -6.6636   -0.7743  -20.1525 C   0  0  0  0  0  0  0  0  0  0  0  0
   -6.9591   -1.0225  -18.8373 C   0  0  0  0  0  0  0  0  0  0  0  0
   -6.2427   -0.5578  -17.7835 N   0  0  0  0  0  0  0  0  0  0  0  0
   -5.1969    0.1879  -18.0568 C   0  0  0  0  0  0  0  0  0  0  0  0
   -4.7703    0.5211  -19.3747 C   0  0  0  0  0  0  0  0  0  0  0  0
   -3.6383    1.3482  -19.6133 C   0  0  0  0  0  0  0  0  0  0  0  0
   -3.2544    1.6494  -20.8915 C   0  0  0  0  0  0  0  0  0  0  0  0
   -3.9867    1.1453  -21.9904 C   0  0  0  0  0  0  0  0  0  0  0  0
   -5.0975    0.3600  -21.7878 C   0  0  0  0  0  0  0  0  0  0  0  0
   -5.5184    0.0238  -20.4698 C   0  0  0  0  0  0  0  0  0  0  0  0
   -5.6733    0.0166  -22.6432 H   0  0  0  0  0  0  0  0  0  0  0  0
   -3.6756    1.3939  -23.0017 H   0  0  0  0  0  0  0  0  0  0  0  0
   -2.3931    2.2889  -21.0698 H   0  0  0  0  0  0  0  0  0  0  0  0
   -3.0997    1.7419  -18.7546 H   0  0  0  0  0  0  0  0  0  0  0  0
   -4.6313    0.5792  -17.2099 H   0  0  0  0  0  0  0  0  0  0  0  0
   -7.8144   -1.6488  -18.5947 H   0  0  0  0  0  0  0  0  0  0  0  0
   -7.0455   -2.4900  -21.9505 C   0  0  0  0  0  0  0  0  0  0  0  0
   -8.3320   -2.9039  -22.6803 C   0  0  2  0  0  0  0  0  0  0  0  0
   -7.9620   -3.6192  -23.9827 C   0  0  0  0  0  0  0  0  0  0  0  0
   -9.1413   -4.0706  -24.6619 N   0  0  0  0  0  0  0  0  0  0  0  0
   -9.1185   -4.6157  -25.9137 C   0  0  0  0  0  0  0  0  0  0  0  0
   -7.6794   -4.7248  -26.8889 S   0  0  0  0  0  0  0  0  0  0  0  0
   -8.6584   -5.4365  -28.1477 C   0  0  0  0  0  0  0  0  0  0  0  0
   -9.9050   -5.5979  -27.8568 N   0  0  0  0  0  0  0  0  0  0  0  0
  -10.1842   -5.1401  -26.5846 C   0  0  0  0  0  0  0  0  0  0  0  0
  -11.5414   -5.2769  -25.9757 C   0  0  0  0  0  0  0  0  0  0  0  0
  -11.9640   -4.2841  -25.7670 H   0  0  0  0  0  0  0  0  0  0  0  0
  -11.4947   -5.8081  -25.0163 H   0  0  0  0  0  0  0  0  0  0  0  0
  -12.2049   -5.8335  -26.6414 H   0  0  0  0  0  0  0  0  0  0  0  0
   -8.2067   -5.7148  -29.0970 H   0  0  0  0  0  0  0  0  0  0  0  0
  -10.0422   -3.9554  -24.2163 H   0  0  0  0  0  0  0  0  0  0  0  0
   -7.3054   -4.4772  -23.7559 H   0  0  0  0  0  0  0  0  0  0  0  0
   -7.3941   -2.9384  -24.6393 H   0  0  0  0  0  0  0  0  0  0  0  0
   -8.8591   -3.6145  -22.0315 H   0  0  0  0  0  0  0  0  0  0  0  0
   -6.6475   -3.2878  -21.3117 H   0  0  0  0  0  0  0  0  0  0  0  0
   -6.2428   -2.2223  -22.6571 H   0  0  0  0  0  0  0  0  0  0  0  0
  -10.7290   -1.7954  -22.6263 C   0  0  0  0  0  0  0  0  0  0  0  0
  -11.2983   -2.7903  -21.8139 C   0  0  0  0  0  0  0  0  0  0  0  0
  -12.6705   -2.8216  -21.6030 C   0  0  0  0  0  0  0  0  0  0  0  0
  -13.3790   -3.8904  -20.4289 Cl  0  0  0  0  0  0  0  0  0  0  0  0
  -13.5320   -1.9359  -22.2451 C   0  0  0  0  0  0  0  0  0  0  0  0
  -12.9848   -0.9594  -23.0438 C   0  0  0  0  0  0  0  0  0  0  0  0
  -11.6041   -0.8504  -23.1864 C   0  0  0  0  0  0  0  0  0  0  0  0
  -11.1080    0.3700  -23.8965 C   0  0  0  0  0  0  0  0  0  0  0  0
  -11.8603    1.2851  -24.2008 O   0  0  0  0  0  0  0  0  0  0  0  0
  -13.6079   -0.2342  -23.5517 H   0  0  0  0  0  0  0  0  0  0  0  0
  -14.6017   -1.9885  -22.0753 H   0  0  0  0  0  0  0  0  0  0  0  0
  -10.6827   -3.5131  -21.2893 H   0  0  0  0  0  0  0  0  0  0  0  0
   -9.1091   -1.4400  -24.9435 H   0  0  0  0  0  0  0  0  0  0  0  0
   -7.8952   -0.4750  -24.0689 H   0  0  0  0  0  0  0  0  0  0  0  0
  -10.0292    2.2857  -24.9001 H   0  0  0  0  0  0  0  0  0  0  0  0
   -8.7794    1.3678  -25.7432 H   0  0  0  0  0  0  0  0  0  0  0  0
   -9.3851    2.7993  -22.3922 H   0  0  0  0  0  0  0  0  0  0  0  0
   -6.7416    4.0839  -22.5746 H   0  0  0  0  0  0  0  0  0  0  0  0
   -6.7879    2.6641  -21.5288 H   0  0  0  0  0  0  0  0  0  0  0  0
   -7.8621    4.1078  -21.2119 H   0  0  0  0  0  0  0  0  0  0  0  0
  1  2  1  0
  2  3  1  0
  3  4  2  0
  3  5  1  0
  5  6  1  0
  6  7  1  0
  8  7  1  6
  8  9  1  0
  9 10  2  0
  9 11  1  0
 11 12  1  0
 12 13  2  0
 13 14  1  0
 14 15  2  0
 15 16  1  0
 16 17  2  0
 17 18  1  0
 18 19  2  0
 19 20  1  0
 20 21  2  0
 20 22  1  0
 19 23  1  0
 18 24  1  0
 17 25  1  0
 15 26  1  0
 13 27  1  0
 11 28  1  0
 28 29  1  0
 29 30  1  0
 30 31  1  0
 31 32  1  0
 32 33  1  0
 33 34  1  0
 34 35  2  0
 35 36  1  0
 36 37  1  0
 37 38  1  0
 37 39  1  0
 37 40  1  0
 34 41  1  0
 31 42  1  0
 30 43  1  0
 30 44  1  0
 29 45  1  1
 28 46  1  0
 28 47  1  0
  8 48  1  0
 48 49  2  0
 49 50  1  0
 50 51  1  0
 50 52  2  0
 52 53  1  0
 53 54  2  0
 54 55  1  0
 55 56  2  0
 53 57  1  0
 52 58  1  0
 49 59  1  0
  7 60  1  0
  7 61  1  0
  5 62  1  0
  5 63  1  0
  2 64  1  0
  1 65  1  0
  1 66  1  0
  1 67  1  0
 55  6  1  0
 29  8  1  0
 36 32  2  0
 54 48  1  0
 21 12  1  0
 21 16  1  0
M  END
>  <cnnaffinities>  (41) 
[6.81526, 6.84268, 7.20198, 7.04722]

>  <score>  (41) 
6.81526

>  <index>  (41) 
43

>  <Smiles>  (41) 
C(N(C(=O)C(N1C([C@@]2(C(=O)N(c3c(nc(c4c(c(c(c(c34)[H])[H])[H])[H])[H])[H])C([C@@]2(C(N(c2sc(nc2C([H])([H])[H])[H])[H])([H])[H])[H])([H])[H])c2c(c(Cl)c(c(c2C1=O)[H])[H])[H])([H])[H])([H])[H])[H])([H])([H])[H]

>  <h>  (41) 
<NA>

>  <Training>  (41) 
True

>  <Success>  (41) 
True

>  <enamine_searched>  (41) 
False

>  <enamine_id>  (41) 
nan

$$$$

     RDKit          3D

 60 64  0  0  0  0  0  0  0  0999 V2000
   -7.4077    3.3838  -21.7991 C   0  0  0  0  0  0  0  0  0  0  0  0
   -8.2898    2.9281  -22.8567 N   0  0  0  0  0  0  0  0  0  0  0  0
   -7.7173    2.2335  -23.8666 C   0  0  0  0  0  0  0  0  0  0  0  0
   -6.5004    2.1257  -23.9746 O   0  0  0  0  0  0  0  0  0  0  0  0
   -8.6638    1.6066  -24.8912 C   0  0  0  0  0  0  0  0  0  0  0  0
   -9.3846    0.4499  -24.3918 N   0  0  0  0  0  0  0  0  0  0  0  0
   -8.6724   -0.8059  -24.2289 C   0  0  0  0  0  0  0  0  0  0  0  0
   -9.0620   -1.5225  -22.9077 C   0  0  2  0  0  0  0  0  0  0  0  0
   -8.5147   -0.7314  -21.6884 C   0  0  0  0  0  0  0  0  0  0  0  0
   -8.9613    0.2931  -21.2150 O   0  0  0  0  0  0  0  0  0  0  0  0
   -7.4050   -1.3858  -21.2004 N   0  0  0  0  0  0  0  0  0  0  0  0
   -6.6057   -0.8102  -20.1730 C   0  0  0  0  0  0  0  0  0  0  0  0
   -6.9116   -1.0417  -18.8565 C   0  0  0  0  0  0  0  0  0  0  0  0
   -6.2113   -0.5490  -17.8036 N   0  0  0  0  0  0  0  0  0  0  0  0
   -5.1711    0.2060  -18.0734 C   0  0  0  0  0  0  0  0  0  0  0  0
   -4.7329    0.5300  -19.3895 C   0  0  0  0  0  0  0  0  0  0  0  0
   -3.6061    1.3640  -19.6366 C   0  0  0  0  0  0  0  0  0  0  0  0
   -3.2204    1.6553  -20.9165 C   0  0  0  0  0  0  0  0  0  0  0  0
   -3.9412    1.1263  -22.0109 C   0  0  0  0  0  0  0  0  0  0  0  0
   -5.0343    0.3192  -21.7981 C   0  0  0  0  0  0  0  0  0  0  0  0
   -5.4666    0.0023  -20.4817 C   0  0  0  0  0  0  0  0  0  0  0  0
   -5.5908   -0.0659  -22.6482 H   0  0  0  0  0  0  0  0  0  0  0  0
   -3.6493    1.3722  -23.0261 H   0  0  0  0  0  0  0  0  0  0  0  0
   -2.3684    2.3053  -21.0968 H   0  0  0  0  0  0  0  0  0  0  0  0
   -3.0725    1.7739  -18.7826 H   0  0  0  0  0  0  0  0  0  0  0  0
   -4.6215    0.6099  -17.2229 H   0  0  0  0  0  0  0  0  0  0  0  0
   -7.7628   -1.6689  -18.6026 H   0  0  0  0  0  0  0  0  0  0  0  0
   -7.0683   -2.5995  -21.9199 C   0  0  0  0  0  0  0  0  0  0  0  0
   -8.3290   -2.8924  -22.7580 C   0  0  2  0  0  0  0  0  0  0  0  0
   -7.9800   -3.6576  -24.0328 C   0  0  0  0  0  0  0  0  0  0  0  0
   -9.1505   -3.9386  -24.7607 O   0  0  0  0  0  0  0  0  0  0  0  0
   -8.8659   -4.5845  -25.9793 C   0  0  0  0  0  0  0  0  0  0  0  0
   -8.2673   -3.9483  -26.6521 H   0  0  0  0  0  0  0  0  0  0  0  0
   -8.3106   -5.5219  -25.8198 H   0  0  0  0  0  0  0  0  0  0  0  0
   -9.8204   -4.8117  -26.4590 H   0  0  0  0  0  0  0  0  0  0  0  0
   -7.2783   -3.0682  -24.6490 H   0  0  0  0  0  0  0  0  0  0  0  0
   -7.4641   -4.6015  -23.7805 H   0  0  0  0  0  0  0  0  0  0  0  0
   -8.9988   -3.5312  -22.1829 H   0  0  0  0  0  0  0  0  0  0  0  0
   -6.1866   -2.4469  -22.5658 H   0  0  0  0  0  0  0  0  0  0  0  0
   -6.8253   -3.4102  -21.2216 H   0  0  0  0  0  0  0  0  0  0  0  0
  -10.5804   -1.5697  -22.8363 C   0  0  0  0  0  0  0  0  0  0  0  0
  -11.2168   -2.4500  -21.9517 C   0  0  0  0  0  0  0  0  0  0  0  0
  -12.5957   -2.4612  -21.8560 C   0  0  0  0  0  0  0  0  0  0  0  0
  -13.3826   -3.5338  -20.7365 Cl  0  0  0  0  0  0  0  0  0  0  0  0
  -13.3838   -1.6006  -22.6195 C   0  0  0  0  0  0  0  0  0  0  0  0
  -12.7621   -0.6794  -23.4380 C   0  0  0  0  0  0  0  0  0  0  0  0
  -11.3704   -0.6317  -23.5184 C   0  0  0  0  0  0  0  0  0  0  0  0
  -10.7429    0.5232  -24.2414 C   0  0  0  0  0  0  0  0  0  0  0  0
  -11.3976    1.4800  -24.6270 O   0  0  0  0  0  0  0  0  0  0  0  0
  -13.3283    0.0513  -24.0052 H   0  0  0  0  0  0  0  0  0  0  0  0
  -14.4627   -1.6399  -22.5282 H   0  0  0  0  0  0  0  0  0  0  0  0
  -10.6423   -3.1023  -21.3029 H   0  0  0  0  0  0  0  0  0  0  0  0
   -8.8829   -1.4849  -25.0705 H   0  0  0  0  0  0  0  0  0  0  0  0
   -7.6031   -0.5689  -24.2118 H   0  0  0  0  0  0  0  0  0  0  0  0
   -9.4378    2.3107  -25.2084 H   0  0  0  0  0  0  0  0  0  0  0  0
   -8.0295    1.3411  -25.7448 H   0  0  0  0  0  0  0  0  0  0  0  0
   -9.2856    2.8433  -22.6942 H   0  0  0  0  0  0  0  0  0  0  0  0
   -6.7249    4.1623  -22.1645 H   0  0  0  0  0  0  0  0  0  0  0  0
   -6.7992    2.5351  -21.4381 H   0  0  0  0  0  0  0  0  0  0  0  0
   -8.0187    3.8094  -21.0044 H   0  0  0  0  0  0  0  0  0  0  0  0
  1  2  1  0
  2  3  1  0
  3  4  2  0
  3  5  1  0
  5  6  1  0
  6  7  1  0
  8  7  1  6
  8  9  1  0
  9 10  2  0
  9 11  1  0
 11 12  1  0
 12 13  2  0
 13 14  1  0
 14 15  2  0
 15 16  1  0
 16 17  2  0
 17 18  1  0
 18 19  2  0
 19 20  1  0
 20 21  2  0
 20 22  1  0
 19 23  1  0
 18 24  1  0
 17 25  1  0
 15 26  1  0
 13 27  1  0
 11 28  1  0
 28 29  1  0
 29 30  1  0
 30 31  1  0
 31 32  1  0
 32 33  1  0
 32 34  1  0
 32 35  1  0
 30 36  1  0
 30 37  1  0
 29 38  1  1
 28 39  1  0
 28 40  1  0
  8 41  1  0
 41 42  2  0
 42 43  1  0
 43 44  1  0
 43 45  2  0
 45 46  1  0
 46 47  2  0
 47 48  1  0
 48 49  2  0
 46 50  1  0
 45 51  1  0
 42 52  1  0
  7 53  1  0
  7 54  1  0
  5 55  1  0
  5 56  1  0
  2 57  1  0
  1 58  1  0
  1 59  1  0
  1 60  1  0
 48  6  1  0
 29  8  1  0
 47 41  1  0
 21 12  1  0
 21 16  1  0
M  END
>  <cnnaffinities>  (42) 
[6.51707, 6.41946, 6.45131, 6.35654, 6.65136]

>  <score>  (42) 
6.51707

>  <index>  (42) 
44

>  <Smiles>  (42) 
C(N(C(=O)C(N1C([C@@]2(C(=O)N(c3c(nc(c4c(c(c(c(c34)[H])[H])[H])[H])[H])[H])C([C@@]2(C(OC([H])([H])[H])([H])[H])[H])([H])[H])c2c(c(Cl)c(c(c2C1=O)[H])[H])[H])([H])[H])([H])[H])[H])([H])([H])[H]

>  <h>  (42) 
<NA>

>  <Training>  (42) 
True

>  <Success>  (42) 
True

>  <enamine_searched>  (42) 
False

>  <enamine_id>  (42) 
nan

$$$$

     RDKit          3D

 66 71  0  0  0  0  0  0  0  0999 V2000
   -7.1844    2.9729  -22.8926 C   0  0  0  0  0  0  0  0  0  0  0  0
   -8.2548    2.1931  -23.4832 N   0  0  0  0  0  0  0  0  0  0  0  0
   -8.1352    1.5618  -24.6787 C   0  0  0  0  0  0  0  0  0  0  0  0
   -7.0782    1.4199  -25.2767 O   0  0  0  0  0  0  0  0  0  0  0  0
   -9.4724    1.0131  -25.1917 C   0  0  0  0  0  0  0  0  0  0  0  0
  -10.0109    0.0360  -24.2635 N   0  0  0  0  0  0  0  0  0  0  0  0
   -9.3114   -1.2287  -24.1039 C   0  0  0  0  0  0  0  0  0  0  0  0
   -9.5073   -1.8226  -22.6875 C   0  0  2  0  0  0  0  0  0  0  0  0
   -8.9291   -0.8527  -21.6103 C   0  0  0  0  0  0  0  0  0  0  0  0
   -9.4703    0.1212  -21.1273 O   0  0  0  0  0  0  0  0  0  0  0  0
   -7.6776   -1.3016  -21.2650 N   0  0  0  0  0  0  0  0  0  0  0  0
   -6.9059   -0.7323  -20.2250 C   0  0  0  0  0  0  0  0  0  0  0  0
   -7.2344   -0.9897  -18.9162 C   0  0  0  0  0  0  0  0  0  0  0  0
   -6.5036   -0.5837  -17.8487 N   0  0  0  0  0  0  0  0  0  0  0  0
   -5.4151    0.1081  -18.0945 C   0  0  0  0  0  0  0  0  0  0  0  0
   -4.9634    0.4559  -19.4013 C   0  0  0  0  0  0  0  0  0  0  0  0
   -3.7815    1.2172  -19.6175 C   0  0  0  0  0  0  0  0  0  0  0  0
   -3.3704    1.5134  -20.8877 C   0  0  0  0  0  0  0  0  0  0  0  0
   -4.1085    1.0598  -22.0017 C   0  0  0  0  0  0  0  0  0  0  0  0
   -5.2602    0.3274  -21.8195 C   0  0  0  0  0  0  0  0  0  0  0  0
   -5.7201    0.0144  -20.5118 C   0  0  0  0  0  0  0  0  0  0  0  0
   -5.8364    0.0110  -22.6837 H   0  0  0  0  0  0  0  0  0  0  0  0
   -3.7808    1.3039  -23.0079 H   0  0  0  0  0  0  0  0  0  0  0  0
   -2.4752    2.1078  -21.0488 H   0  0  0  0  0  0  0  0  0  0  0  0
   -3.2217    1.5580  -18.7506 H   0  0  0  0  0  0  0  0  0  0  0  0
   -4.8201    0.4254  -17.2363 H   0  0  0  0  0  0  0  0  0  0  0  0
   -8.1232   -1.5752  -18.6903 H   0  0  0  0  0  0  0  0  0  0  0  0
   -7.2674   -2.4672  -22.0086 C   0  0  0  0  0  0  0  0  0  0  0  0
   -8.5941   -3.0859  -22.4747 C   0  0  2  0  0  0  0  0  0  0  0  0
   -8.4019   -4.0584  -23.6613 C   0  0  0  0  0  0  0  0  0  0  0  0
   -7.4155   -5.2020  -23.4620 C   0  0  0  0  0  0  0  0  0  0  0  0
   -6.0338   -4.9913  -23.5734 C   0  0  0  0  0  0  0  0  0  0  0  0
   -5.1357   -6.0539  -23.5619 C   0  0  0  0  0  0  0  0  0  0  0  0
   -5.5895   -7.3585  -23.3931 C   0  0  0  0  0  0  0  0  0  0  0  0
   -6.9525   -7.5801  -23.2278 C   0  0  0  0  0  0  0  0  0  0  0  0
   -7.8489   -6.5137  -23.2564 C   0  0  0  0  0  0  0  0  0  0  0  0
   -8.9104   -6.7212  -23.1396 H   0  0  0  0  0  0  0  0  0  0  0  0
   -7.3316   -8.5922  -23.1120 H   0  0  0  0  0  0  0  0  0  0  0  0
   -4.8789   -8.1829  -23.3724 H   0  0  0  0  0  0  0  0  0  0  0  0
   -4.0772   -5.8599  -23.7168 H   0  0  0  0  0  0  0  0  0  0  0  0
   -5.6460   -3.9808  -23.6932 H   0  0  0  0  0  0  0  0  0  0  0  0
   -9.3825   -4.4632  -23.9398 H   0  0  0  0  0  0  0  0  0  0  0  0
   -8.0452   -3.4850  -24.5264 H   0  0  0  0  0  0  0  0  0  0  0  0
   -8.9961   -3.6508  -21.6280 H   0  0  0  0  0  0  0  0  0  0  0  0
   -6.6706   -3.1405  -21.3903 H   0  0  0  0  0  0  0  0  0  0  0  0
   -6.6552   -2.1796  -22.8778 H   0  0  0  0  0  0  0  0  0  0  0  0
  -11.0121   -1.9432  -22.5057 C   0  0  0  0  0  0  0  0  0  0  0  0
  -11.6192   -2.9368  -21.7343 C   0  0  0  0  0  0  0  0  0  0  0  0
  -12.9811   -2.8778  -21.4767 C   0  0  0  0  0  0  0  0  0  0  0  0
  -13.7287   -4.0228  -20.4095 Cl  0  0  0  0  0  0  0  0  0  0  0  0
  -13.7883   -1.8690  -21.9943 C   0  0  0  0  0  0  0  0  0  0  0  0
  -13.2018   -0.8885  -22.7586 C   0  0  0  0  0  0  0  0  0  0  0  0
  -11.8383   -0.9265  -23.0194 C   0  0  0  0  0  0  0  0  0  0  0  0
  -11.3071    0.1756  -23.8702 C   0  0  0  0  0  0  0  0  0  0  0  0
  -11.9861    1.1525  -24.1657 O   0  0  0  0  0  0  0  0  0  0  0  0
  -13.7743   -0.0569  -23.1530 H   0  0  0  0  0  0  0  0  0  0  0  0
  -14.8454   -1.8472  -21.7621 H   0  0  0  0  0  0  0  0  0  0  0  0
  -11.0218   -3.7208  -21.2864 H   0  0  0  0  0  0  0  0  0  0  0  0
   -8.2544   -1.0551  -24.3093 H   0  0  0  0  0  0  0  0  0  0  0  0
   -9.6880   -1.9575  -24.8351 H   0  0  0  0  0  0  0  0  0  0  0  0
   -9.3602    0.5997  -26.1998 H   0  0  0  0  0  0  0  0  0  0  0  0
  -10.2192    1.8163  -25.2458 H   0  0  0  0  0  0  0  0  0  0  0  0
   -9.1580    2.1694  -23.0288 H   0  0  0  0  0  0  0  0  0  0  0  0
   -7.5176    3.9944  -22.6895 H   0  0  0  0  0  0  0  0  0  0  0  0
   -6.3597    2.9883  -23.6108 H   0  0  0  0  0  0  0  0  0  0  0  0
   -6.8348    2.5365  -21.9498 H   0  0  0  0  0  0  0  0  0  0  0  0
  1  2  1  0
  2  3  1  0
  3  4  2  0
  3  5  1  0
  5  6  1  0
  6  7  1  0
  8  7  1  6
  8  9  1  0
  9 10  2  0
  9 11  1  0
 11 12  1  0
 12 13  2  0
 13 14  1  0
 14 15  2  0
 15 16  1  0
 16 17  2  0
 17 18  1  0
 18 19  2  0
 19 20  1  0
 20 21  2  0
 20 22  1  0
 19 23  1  0
 18 24  1  0
 17 25  1  0
 15 26  1  0
 13 27  1  0
 11 28  1  0
 28 29  1  0
 29 30  1  0
 30 31  1  0
 31 32  2  0
 32 33  1  0
 33 34  2  0
 34 35  1  0
 35 36  2  0
 36 37  1  0
 35 38  1  0
 34 39  1  0
 33 40  1  0
 32 41  1  0
 30 42  1  0
 30 43  1  0
 29 44  1  1
 28 45  1  0
 28 46  1  0
  8 47  1  0
 47 48  2  0
 48 49  1  0
 49 50  1  0
 49 51  2  0
 51 52  1  0
 52 53  2  0
 53 54  1  0
 54 55  2  0
 52 56  1  0
 51 57  1  0
 48 58  1  0
  7 59  1  0
  7 60  1  0
  5 61  1  0
  5 62  1  0
  2 63  1  0
  1 64  1  0
  1 65  1  0
  1 66  1  0
 54  6  1  0
 29  8  1  0
 36 31  1  0
 53 47  1  0
 21 12  1  0
 21 16  1  0
M  END
>  <cnnaffinities>  (43) 
[7.22693, 7.22575, 6.9458, 6.91456, 6.83121]

>  <score>  (43) 
7.22693

>  <index>  (43) 
45

>  <Smiles>  (43) 
C(N(C(=O)C(N1C([C@@]2(C(=O)N(c3c(nc(c4c(c(c(c(c34)[H])[H])[H])[H])[H])[H])C([C@@]2(C(c2c(c(c(c(c2[H])[H])[H])[H])[H])([H])[H])[H])([H])[H])c2c(c(Cl)c(c(c2C1=O)[H])[H])[H])([H])[H])([H])[H])[H])([H])([H])[H]

>  <h>  (43) 
<NA>

>  <Training>  (43) 
True

>  <Success>  (43) 
True

>  <enamine_searched>  (43) 
False

>  <enamine_id>  (43) 
nan

$$$$

     RDKit          3D

 50 54  0  0  0  0  0  0  0  0999 V2000
   -8.3901   -4.0238  -23.6749 C   0  0  0  0  0  0  0  0  0  0  0  0
   -8.5949   -3.0947  -22.4850 C   0  0  1  0  0  0  0  0  0  0  0  0
   -7.2613   -2.5164  -21.9992 C   0  0  0  0  0  0  0  0  0  0  0  0
   -7.6648   -1.3475  -21.2545 N   0  0  0  0  0  0  0  0  0  0  0  0
   -6.8806   -0.8010  -20.2100 C   0  0  0  0  0  0  0  0  0  0  0  0
   -7.1945   -1.0541  -18.8987 C   0  0  0  0  0  0  0  0  0  0  0  0
   -6.4676   -0.6215  -17.8366 N   0  0  0  0  0  0  0  0  0  0  0  0
   -5.3952    0.0921  -18.0863 C   0  0  0  0  0  0  0  0  0  0  0  0
   -4.9496    0.4263  -19.3965 C   0  0  0  0  0  0  0  0  0  0  0  0
   -3.7969    1.2241  -19.6225 C   0  0  0  0  0  0  0  0  0  0  0  0
   -3.3905    1.5065  -20.8970 C   0  0  0  0  0  0  0  0  0  0  0  0
   -4.1116    1.0034  -22.0026 C   0  0  0  0  0  0  0  0  0  0  0  0
   -5.2384    0.2414  -21.8113 C   0  0  0  0  0  0  0  0  0  0  0  0
   -5.6941   -0.0545  -20.4990 C   0  0  0  0  0  0  0  0  0  0  0  0
   -5.7944   -0.1285  -22.6687 H   0  0  0  0  0  0  0  0  0  0  0  0
   -3.7754    1.2255  -23.0110 H   0  0  0  0  0  0  0  0  0  0  0  0
   -2.5096    2.1194  -21.0710 H   0  0  0  0  0  0  0  0  0  0  0  0
   -3.2494    1.6048  -18.7646 H   0  0  0  0  0  0  0  0  0  0  0  0
   -4.8133    0.4416  -17.2304 H   0  0  0  0  0  0  0  0  0  0  0  0
   -8.0715   -1.6511  -18.6596 H   0  0  0  0  0  0  0  0  0  0  0  0
   -8.9529   -0.9309  -21.5314 C   0  0  0  0  0  0  0  0  0  0  0  0
   -9.4870    0.0202  -21.0110 O   0  0  0  0  0  0  0  0  0  0  0  0
   -9.5429   -1.8685  -22.6369 C   0  0  1  0  0  0  0  0  0  0  0  0
   -9.3762   -1.2065  -24.0307 C   0  0  0  0  0  0  0  0  0  0  0  0
  -10.3165   -0.1234  -24.2563 N   0  0  0  0  0  0  0  0  0  0  0  0
   -9.8959    1.1429  -24.8172 C   0  0  0  0  0  0  0  0  0  0  0  0
  -10.0037    2.2261  -23.8256 C   0  0  0  0  0  0  0  0  0  0  0  0
  -10.1362    3.0609  -23.0414 N   0  0  0  0  0  0  0  0  0  0  0  0
  -10.5287    1.3788  -25.6748 H   0  0  0  0  0  0  0  0  0  0  0  0
   -8.8620    1.0572  -25.1542 H   0  0  0  0  0  0  0  0  0  0  0  0
  -11.6426   -0.2396  -23.9559 C   0  0  0  0  0  0  0  0  0  0  0  0
  -12.4807    0.5635  -24.3396 O   0  0  0  0  0  0  0  0  0  0  0  0
  -12.0099   -1.3548  -23.0576 C   0  0  0  0  0  0  0  0  0  0  0  0
  -13.3687   -1.4713  -22.7663 C   0  0  0  0  0  0  0  0  0  0  0  0
  -13.8055   -2.3956  -21.8487 C   0  0  0  0  0  0  0  0  0  0  0  0
  -12.8333   -3.2011  -21.2704 C   0  0  0  0  0  0  0  0  0  0  0  0
  -13.2307   -4.0493  -20.3126 F   0  0  0  0  0  0  0  0  0  0  0  0
  -11.4924   -3.1400  -21.5961 C   0  0  0  0  0  0  0  0  0  0  0  0
  -11.0287   -2.1492  -22.4558 C   0  0  0  0  0  0  0  0  0  0  0  0
  -10.7994   -3.8362  -21.1465 H   0  0  0  0  0  0  0  0  0  0  0  0
  -14.8507   -2.4753  -21.5694 H   0  0  0  0  0  0  0  0  0  0  0  0
  -14.0496   -0.7803  -23.2511 H   0  0  0  0  0  0  0  0  0  0  0  0
   -9.5071   -1.9727  -24.8087 H   0  0  0  0  0  0  0  0  0  0  0  0
   -8.3680   -0.7934  -24.1209 H   0  0  0  0  0  0  0  0  0  0  0  0
   -6.7238   -3.2188  -21.3538 H   0  0  0  0  0  0  0  0  0  0  0  0
   -6.6033   -2.2682  -22.8495 H   0  0  0  0  0  0  0  0  0  0  0  0
   -8.9847   -3.6835  -21.6502 H   0  0  0  0  0  0  0  0  0  0  0  0
   -9.3210   -4.5020  -23.9995 H   0  0  0  0  0  0  0  0  0  0  0  0
   -7.9569   -3.4868  -24.5298 H   0  0  0  0  0  0  0  0  0  0  0  0
   -7.6796   -4.8121  -23.3928 H   0  0  0  0  0  0  0  0  0  0  0  0
  1  2  1  0
  2  3  1  0
  3  4  1  0
  4  5  1  0
  5  6  2  0
  6  7  1  0
  7  8  2  0
  8  9  1  0
  9 10  2  0
 10 11  1  0
 11 12  2  0
 12 13  1  0
 13 14  2  0
 13 15  1  0
 12 16  1  0
 11 17  1  0
 10 18  1  0
  8 19  1  0
  6 20  1  0
  4 21  1  0
 21 22  2  0
 21 23  1  0
 23 24  1  6
 24 25  1  0
 25 26  1  0
 26 27  1  0
 27 28  3  0
 26 29  1  0
 26 30  1  0
 25 31  1  0
 31 32  2  0
 31 33  1  0
 33 34  2  0
 34 35  1  0
 35 36  2  0
 36 37  1  0
 36 38  1  0
 38 39  2  0
 38 40  1  0
 35 41  1  0
 34 42  1  0
 24 43  1  0
 24 44  1  0
  3 45  1  0
  3 46  1  0
  2 47  1  1
  1 48  1  0
  1 49  1  0
  1 50  1  0
 23  2  1  0
 39 33  1  0
 14  5  1  0
 39 23  1  0
 14  9  1  0
M  END
>  <cnnaffinities>  (44) 
[6.45167]

>  <score>  (44) 
6.45167

>  <index>  (44) 
46

>  <Smiles>  (44) 
C([C@]1(C(N(c2c(nc(c3c(c(c(c(c23)[H])[H])[H])[H])[H])[H])C(=O)[C@]21C(N(C(C#N)([H])[H])C(=O)c1c(c(c(F)c(c21)[H])[H])[H])([H])[H])([H])[H])[H])([H])([H])[H]

>  <h>  (44) 
<NA>

>  <Training>  (44) 
True

>  <Success>  (44) 
True

>  <enamine_searched>  (44) 
False

>  <enamine_id>  (44) 
nan

$$$$

     RDKit          3D

 58 63  0  0  0  0  0  0  0  0999 V2000
   -8.4496    0.7755  -21.2948 O   0  0  0  0  0  0  0  0  0  0  0  0
   -8.3620   -0.3278  -21.8104 C   0  0  0  0  0  0  0  0  0  0  0  0
   -7.4530   -1.4081  -21.2306 C   0  0  0  0  0  0  0  0  0  0  0  0
   -6.5850   -0.8590  -20.1499 C   0  0  0  0  0  0  0  0  0  0  0  0
   -6.9132   -1.0570  -18.8352 C   0  0  0  0  0  0  0  0  0  0  0  0
   -6.2443   -0.5462  -17.7692 N   0  0  0  0  0  0  0  0  0  0  0  0
   -5.2041    0.2078  -18.0510 C   0  0  0  0  0  0  0  0  0  0  0  0
   -4.7616    0.5189  -19.3677 C   0  0  0  0  0  0  0  0  0  0  0  0
   -3.6400    1.3497  -19.6035 C   0  0  0  0  0  0  0  0  0  0  0  0
   -3.2443    1.6426  -20.8817 C   0  0  0  0  0  0  0  0  0  0  0  0
   -3.9592    1.1171  -21.9805 C   0  0  0  0  0  0  0  0  0  0  0  0
   -5.0496    0.3093  -21.7783 C   0  0  0  0  0  0  0  0  0  0  0  0
   -5.4766   -0.0191  -20.4602 C   0  0  0  0  0  0  0  0  0  0  0  0
   -5.5939   -0.0715  -22.6403 H   0  0  0  0  0  0  0  0  0  0  0  0
   -3.6365    1.3626  -22.9882 H   0  0  0  0  0  0  0  0  0  0  0  0
   -2.3882    2.2843  -21.0556 H   0  0  0  0  0  0  0  0  0  0  0  0
   -3.1062    1.7511  -18.7465 H   0  0  0  0  0  0  0  0  0  0  0  0
   -4.6539    0.6192  -17.2080 H   0  0  0  0  0  0  0  0  0  0  0  0
   -7.7815   -1.6712  -18.5932 H   0  0  0  0  0  0  0  0  0  0  0  0
   -8.0883   -2.2077  -20.8240 H   0  0  0  0  0  0  0  0  0  0  0  0
   -6.8481   -1.8402  -22.0382 H   0  0  0  0  0  0  0  0  0  0  0  0
   -9.0762   -0.6664  -22.9342 N   0  0  0  0  0  0  0  0  0  0  0  0
   -9.1151   -2.0010  -23.5417 C   0  0  0  0  0  0  0  0  0  0  0  0
   -8.4981   -2.1009  -24.9305 C   0  0  0  0  0  0  0  0  0  0  0  0
   -7.2034   -1.6507  -25.1995 C   0  0  0  0  0  0  0  0  0  0  0  0
   -6.6555   -1.7646  -26.4753 C   0  0  0  0  0  0  0  0  0  0  0  0
   -7.3986   -2.2866  -27.5276 C   0  0  0  0  0  0  0  0  0  0  0  0
   -8.6881   -2.7239  -27.2592 C   0  0  0  0  0  0  0  0  0  0  0  0
   -9.6790   -3.3102  -28.5656 Cl  0  0  0  0  0  0  0  0  0  0  0  0
   -9.2229   -2.6798  -25.9754 C   0  0  0  0  0  0  0  0  0  0  0  0
  -10.2116   -3.1036  -25.8172 H   0  0  0  0  0  0  0  0  0  0  0  0
   -6.9863   -2.3515  -28.5312 H   0  0  0  0  0  0  0  0  0  0  0  0
   -5.6384   -1.4281  -26.6532 H   0  0  0  0  0  0  0  0  0  0  0  0
   -6.5986   -1.2015  -24.4153 H   0  0  0  0  0  0  0  0  0  0  0  0
   -8.6305   -2.7085  -22.8659 H   0  0  0  0  0  0  0  0  0  0  0  0
  -10.1596   -2.3196  -23.6067 H   0  0  0  0  0  0  0  0  0  0  0  0
   -9.7877    0.4149  -23.5619 C   0  0  2  0  0  0  0  0  0  0  0  0
   -8.9701    1.4832  -24.3237 C   0  0  0  0  0  0  0  0  0  0  0  0
  -10.1184    2.3363  -24.8306 N   0  0  1  0  0  4  0  0  0  0  0  0
  -10.1121    2.7334  -26.2446 C   0  0  0  0  0  0  0  0  0  0  0  0
   -9.2647    3.8924  -26.6671 C   0  0  0  0  0  0  0  0  0  0  0  0
  -10.7660    4.0269  -26.6348 C   0  0  0  0  0  0  0  0  0  0  0  0
  -11.2897    4.0058  -27.5825 H   0  0  0  0  0  0  0  0  0  0  0  0
  -11.2244    4.6443  -25.8644 H   0  0  0  0  0  0  0  0  0  0  0  0
   -8.7950    3.8444  -27.6434 H   0  0  0  0  0  0  0  0  0  0  0  0
   -8.6960    4.3723  -25.8761 H   0  0  0  0  0  0  0  0  0  0  0  0
  -10.2079    1.9175  -26.9492 H   0  0  0  0  0  0  0  0  0  0  0  0
  -11.2885    1.5096  -24.3280 C   0  0  2  0  0  0  0  0  0  0  0  0
  -10.8705    1.2766  -22.8751 C   0  0  0  0  0  0  0  0  0  0  0  0
  -11.5841    0.6897  -22.2957 H   0  0  0  0  0  0  0  0  0  0  0  0
  -10.5073    2.1624  -22.3433 H   0  0  0  0  0  0  0  0  0  0  0  0
  -10.8235    0.0905  -24.6365 C   0  0  0  0  0  0  0  0  0  0  0  0
  -10.3167   -0.0441  -25.5916 H   0  0  0  0  0  0  0  0  0  0  0  0
  -11.5156   -0.7085  -24.3685 H   0  0  0  0  0  0  0  0  0  0  0  0
  -12.2556    1.8826  -24.6346 H   0  0  0  0  0  0  0  0  0  0  0  0
  -10.1273    3.2171  -24.2878 H   0  0  0  0  0  0  0  0  0  0  0  0
   -8.4300    1.0499  -25.1659 H   0  0  0  0  0  0  0  0  0  0  0  0
   -8.2985    2.0639  -23.6926 H   0  0  0  0  0  0  0  0  0  0  0  0
  1  2  2  0
  2  3  1  0
  3  4  1  0
  4  5  2  0
  5  6  1  0
  6  7  2  0
  7  8  1  0
  8  9  2  0
  9 10  1  0
 10 11  2  0
 11 12  1  0
 12 13  2  0
 12 14  1  0
 11 15  1  0
 10 16  1  0
  9 17  1  0
  7 18  1  0
  5 19  1  0
  3 20  1  0
  3 21  1  0
  2 22  1  0
 22 23  1  0
 23 24  1  0
 24 25  2  0
 25 26  1  0
 26 27  2  0
 27 28  1  0
 28 29  1  0
 28 30  2  0
 30 31  1  0
 27 32  1  0
 26 33  1  0
 25 34  1  0
 23 35  1  0
 23 36  1  0
 37 22  1  1
 37 38  1  0
 38 39  1  0
 39 40  1  0
 40 41  1  0
 41 42  1  0
 42 43  1  0
 42 44  1  0
 41 45  1  0
 41 46  1  0
 40 47  1  0
 39 48  1  0
 48 49  1  0
 49 50  1  0
 49 51  1  0
 48 52  1  0
 52 53  1  0
 52 54  1  0
 48 55  1  1
 39 56  1  1
 38 57  1  0
 38 58  1  0
 13  4  1  0
 30 24  1  0
 49 37  1  0
 13  8  1  0
 52 37  1  0
 42 40  1  0
M  CHG  1  39   1
M  END
>  <cnnaffinities>  (45) 
[5.70351, 5.67636, 5.97704, 5.54472, 5.33434, 5.71709, 5.5839, 5.89788, 5.59719, 5.85194, 5.81647]

>  <score>  (45) 
5.70351

>  <index>  (45) 
47

>  <Smiles>  (45) 
O=C(C(c1c(nc(c2c(c(c(c(c12)[H])[H])[H])[H])[H])[H])([H])[H])N(C(c1c(c(c(c(Cl)c1[H])[H])[H])[H])([H])[H])[C@]12C([N@@+](C3(C(C3([H])[H])([H])[H])[H])([C@](C1([H])[H])(C2([H])[H])[H])[H])([H])[H]

>  <h>  (45) 
<NA>

>  <Training>  (45) 
True

>  <Success>  (45) 
True

>  <enamine_searched>  (45) 
False

>  <enamine_id>  (45) 
nan

$$$$

     RDKit          3D

 46 48  0  0  0  0  0  0  0  0999 V2000
   -5.0023    1.8070  -26.3228 C   0  0  0  0  0  0  0  0  0  0  0  0
   -6.4614    1.6993  -26.7706 C   0  0  0  0  0  0  0  0  0  0  0  0
   -6.9119    3.0163  -27.4103 C   0  0  0  0  0  0  0  0  0  0  0  0
   -7.9491    2.9674  -27.7603 H   0  0  0  0  0  0  0  0  0  0  0  0
   -6.8381    3.8555  -26.7093 H   0  0  0  0  0  0  0  0  0  0  0  0
   -6.2822    3.2651  -28.2721 H   0  0  0  0  0  0  0  0  0  0  0  0
   -7.4290    1.2354  -25.6591 C   0  0  0  0  0  0  0  0  0  0  0  0
   -7.3748    2.0671  -24.3772 C   0  0  0  0  0  0  0  0  0  0  0  0
   -8.3898    1.5771  -23.3445 C   0  0  0  0  0  0  0  0  0  0  0  0
   -8.1860    0.1582  -23.0773 N   0  0  0  0  0  0  0  0  0  0  0  0
   -8.3993   -0.3105  -21.7762 C   0  0  0  0  0  0  0  0  0  0  0  0
   -9.2219    0.1771  -21.0329 O   0  0  0  0  0  0  0  0  0  0  0  0
   -7.4483   -1.4085  -21.2710 C   0  0  0  0  0  0  0  0  0  0  0  0
   -6.5720   -0.8334  -20.1746 C   0  0  0  0  0  0  0  0  0  0  0  0
   -6.8775   -1.0413  -18.8546 C   0  0  0  0  0  0  0  0  0  0  0  0
   -6.1952   -0.5357  -17.7907 N   0  0  0  0  0  0  0  0  0  0  0  0
   -5.1576    0.2205  -18.0630 C   0  0  0  0  0  0  0  0  0  0  0  0
   -4.7245    0.5352  -19.3793 C   0  0  0  0  0  0  0  0  0  0  0  0
   -3.6032    1.3705  -19.6214 C   0  0  0  0  0  0  0  0  0  0  0  0
   -3.2126    1.6659  -20.9000 C   0  0  0  0  0  0  0  0  0  0  0  0
   -3.9322    1.1294  -21.9909 C   0  0  0  0  0  0  0  0  0  0  0  0
   -5.0201    0.3163  -21.7853 C   0  0  0  0  0  0  0  0  0  0  0  0
   -5.4515   -0.0011  -20.4710 C   0  0  0  0  0  0  0  0  0  0  0  0
   -5.5527   -0.0896  -22.6386 H   0  0  0  0  0  0  0  0  0  0  0  0
   -3.6127    1.3676  -23.0016 H   0  0  0  0  0  0  0  0  0  0  0  0
   -2.3593    2.3150  -21.0825 H   0  0  0  0  0  0  0  0  0  0  0  0
   -3.0641    1.7818  -18.7713 H   0  0  0  0  0  0  0  0  0  0  0  0
   -4.6029    0.6266  -17.2150 H   0  0  0  0  0  0  0  0  0  0  0  0
   -7.7295   -1.6618  -18.5828 H   0  0  0  0  0  0  0  0  0  0  0  0
   -6.8430   -1.8267  -22.0854 H   0  0  0  0  0  0  0  0  0  0  0  0
   -8.0618   -2.2121  -20.8465 H   0  0  0  0  0  0  0  0  0  0  0  0
   -8.2496   -0.6969  -24.2556 C   0  0  0  0  0  0  0  0  0  0  0  0
   -7.2488   -0.2434  -25.3111 C   0  0  0  0  0  0  0  0  0  0  0  0
   -7.3581   -0.8602  -26.2108 H   0  0  0  0  0  0  0  0  0  0  0  0
   -6.2372   -0.4226  -24.9321 H   0  0  0  0  0  0  0  0  0  0  0  0
   -8.0578   -1.7242  -23.9492 H   0  0  0  0  0  0  0  0  0  0  0  0
   -9.2621   -0.6909  -24.6984 H   0  0  0  0  0  0  0  0  0  0  0  0
   -8.2613    2.1084  -22.4015 H   0  0  0  0  0  0  0  0  0  0  0  0
   -9.4137    1.7939  -23.6861 H   0  0  0  0  0  0  0  0  0  0  0  0
   -6.3764    2.0103  -23.9277 H   0  0  0  0  0  0  0  0  0  0  0  0
   -7.5494    3.1252  -24.5932 H   0  0  0  0  0  0  0  0  0  0  0  0
   -8.4452    1.3429  -26.0699 H   0  0  0  0  0  0  0  0  0  0  0  0
   -6.5028    0.9336  -27.5568 H   0  0  0  0  0  0  0  0  0  0  0  0
   -4.3500    2.0279  -27.1749 H   0  0  0  0  0  0  0  0  0  0  0  0
   -4.6368    0.8843  -25.8606 H   0  0  0  0  0  0  0  0  0  0  0  0
   -4.8637    2.6179  -25.5994 H   0  0  0  0  0  0  0  0  0  0  0  0
  1  2  1  0
  2  3  1  0
  3  4  1  0
  3  5  1  0
  3  6  1  0
  2  7  1  0
  7  8  1  0
  8  9  1  0
  9 10  1  0
 10 11  1  0
 11 12  2  0
 11 13  1  0
 13 14  1  0
 14 15  2  0
 15 16  1  0
 16 17  2  0
 17 18  1  0
 18 19  2  0
 19 20  1  0
 20 21  2  0
 21 22  1  0
 22 23  2  0
 22 24  1  0
 21 25  1  0
 20 26  1  0
 19 27  1  0
 17 28  1  0
 15 29  1  0
 13 30  1  0
 13 31  1  0
 10 32  1  0
 32 33  1  0
 33 34  1  0
 33 35  1  0
 32 36  1  0
 32 37  1  0
  9 38  1  0
  9 39  1  0
  8 40  1  0
  8 41  1  0
  7 42  1  0
  2 43  1  0
  1 44  1  0
  1 45  1  0
  1 46  1  0
 33  7  1  0
 23 14  1  0
 23 18  1  0
M  END
>  <cnnaffinities>  (46) 
[4.99529, 4.99525, 4.99525, 5.02589, 5.02589, 5.02586, 4.83865, 4.83882, 4.83866, 5.23006, 5.23906, 5.20953, 5.20936, 5.20963, 5.20993, 5.31249, 5.23937, 5.31378, 4.98809, 4.98943, 4.98944, 4.99714, 5.23928, 5.23914, 5.21813, 5.21811, 5.21833, 4.89847, 4.89844, 5.12445, 5.09491, 5.09492, 4.76346, 4.76447, 4.88644, 4.873, 4.87278, 5.05725]

>  <score>  (46) 
4.99529

>  <index>  (46) 
48

>  <Smiles>  (46) 
C(C(C([H])([H])[H])(C1(C(C(N(C(=O)C(c2c(nc(c3c(c(c(c(c23)[H])[H])[H])[H])[H])[H])([H])[H])C(C1([H])[H])([H])[H])([H])[H])([H])[H])[H])[H])([H])([H])[H]

>  <h>  (46) 
<NA>

>  <Training>  (46) 
True

>  <Success>  (46) 
True

>  <enamine_searched>  (46) 
False

>  <enamine_id>  (46) 
nan

$$$$

     RDKit          3D

 67 72  0  0  0  0  0  0  0  0999 V2000
   -9.2252    2.3590  -28.3313 C   0  0  0  0  0  0  0  0  0  0  0  0
   -9.3805    2.2042  -26.8977 N   0  0  0  0  0  0  0  0  0  0  0  0
   -8.3644    1.6830  -26.1637 C   0  0  0  0  0  0  0  0  0  0  0  0
   -7.3166    1.2697  -26.6435 O   0  0  0  0  0  0  0  0  0  0  0  0
   -8.6058    1.6705  -24.6500 C   0  0  0  0  0  0  0  0  0  0  0  0
   -9.2916    0.4752  -24.1999 N   0  0  0  0  0  0  0  0  0  0  0  0
   -8.5715   -0.7759  -24.1434 C   0  0  0  0  0  0  0  0  0  0  0  0
   -8.9777   -1.5969  -22.8968 C   0  0  2  0  0  0  0  0  0  0  0  0
   -8.5401   -0.8617  -21.6088 C   0  0  0  0  0  0  0  0  0  0  0  0
   -9.1078    0.0575  -21.0555 O   0  0  0  0  0  0  0  0  0  0  0  0
   -7.3716   -1.4303  -21.1616 N   0  0  0  0  0  0  0  0  0  0  0  0
   -6.6107   -0.8317  -20.1258 C   0  0  0  0  0  0  0  0  0  0  0  0
   -6.9604   -1.0287  -18.8153 C   0  0  0  0  0  0  0  0  0  0  0  0
   -6.2701   -0.5384  -17.7516 N   0  0  0  0  0  0  0  0  0  0  0  0
   -5.2089    0.1910  -18.0110 C   0  0  0  0  0  0  0  0  0  0  0  0
   -4.7480    0.5016  -19.3257 C   0  0  0  0  0  0  0  0  0  0  0  0
   -3.6196    1.3324  -19.5627 C   0  0  0  0  0  0  0  0  0  0  0  0
   -3.2327    1.6282  -20.8415 C   0  0  0  0  0  0  0  0  0  0  0  0
   -3.9436    1.1039  -21.9435 C   0  0  0  0  0  0  0  0  0  0  0  0
   -5.0321    0.2932  -21.7428 C   0  0  0  0  0  0  0  0  0  0  0  0
   -5.4634   -0.0256  -20.4240 C   0  0  0  0  0  0  0  0  0  0  0  0
   -5.5790   -0.0976  -22.5963 H   0  0  0  0  0  0  0  0  0  0  0  0
   -3.6332    1.3515  -22.9537 H   0  0  0  0  0  0  0  0  0  0  0  0
   -2.3810    2.2781  -21.0199 H   0  0  0  0  0  0  0  0  0  0  0  0
   -3.0875    1.7402  -18.7076 H   0  0  0  0  0  0  0  0  0  0  0  0
   -4.6556    0.5841  -17.1572 H   0  0  0  0  0  0  0  0  0  0  0  0
   -7.8418   -1.6218  -18.5806 H   0  0  0  0  0  0  0  0  0  0  0  0
   -6.9298   -2.5719  -21.9329 C   0  0  0  0  0  0  0  0  0  0  0  0
   -8.1332   -2.9096  -22.8331 C   0  0  2  0  0  0  0  0  0  0  0  0
   -7.6528   -3.4763  -24.1867 C   0  0  0  0  0  0  0  0  0  0  0  0
   -6.7528   -4.5868  -24.0450 N   0  0  0  0  0  0  0  0  0  0  0  0
   -7.1971   -5.8667  -23.8509 C   0  0  0  0  0  0  0  0  0  0  0  0
   -6.4943   -6.9882  -23.5408 C   0  0  0  0  0  0  0  0  0  0  0  0
   -7.2391   -8.1201  -23.2965 N   0  0  0  0  0  0  0  0  0  0  0  0
   -8.5085   -7.8824  -23.4287 C   0  0  0  0  0  0  0  0  0  0  0  0
   -9.6075   -8.8661  -23.2168 C   0  0  0  0  0  0  0  0  0  0  0  0
  -10.2180   -8.9018  -24.1245 H   0  0  0  0  0  0  0  0  0  0  0  0
  -10.2676   -8.5978  -22.3853 H   0  0  0  0  0  0  0  0  0  0  0  0
   -9.1802   -9.8489  -23.0063 H   0  0  0  0  0  0  0  0  0  0  0  0
   -8.8890   -6.2529  -23.9221 S   0  0  0  0  0  0  0  0  0  0  0  0
   -5.4171   -7.0075  -23.4599 H   0  0  0  0  0  0  0  0  0  0  0  0
   -5.7888   -4.3972  -23.8245 H   0  0  0  0  0  0  0  0  0  0  0  0
   -7.1302   -2.7083  -24.7647 H   0  0  0  0  0  0  0  0  0  0  0  0
   -8.5112   -3.8083  -24.7731 H   0  0  0  0  0  0  0  0  0  0  0  0
   -8.7223   -3.6895  -22.3419 H   0  0  0  0  0  0  0  0  0  0  0  0
   -6.6525   -3.4005  -21.2717 H   0  0  0  0  0  0  0  0  0  0  0  0
   -6.0422   -2.3198  -22.5313 H   0  0  0  0  0  0  0  0  0  0  0  0
  -10.4976   -1.6818  -22.8790 C   0  0  0  0  0  0  0  0  0  0  0  0
  -11.1480   -2.5806  -22.0244 C   0  0  0  0  0  0  0  0  0  0  0  0
  -12.5336   -2.5876  -21.9576 C   0  0  0  0  0  0  0  0  0  0  0  0
  -13.3630   -3.6262  -20.8374 Cl  0  0  0  0  0  0  0  0  0  0  0  0
  -13.3063   -1.7166  -22.7240 C   0  0  0  0  0  0  0  0  0  0  0  0
  -12.6747   -0.7815  -23.5178 C   0  0  0  0  0  0  0  0  0  0  0  0
  -11.2820   -0.7285  -23.5557 C   0  0  0  0  0  0  0  0  0  0  0  0
  -10.6516    0.4539  -24.2335 C   0  0  0  0  0  0  0  0  0  0  0  0
  -11.2987    1.3610  -24.7438 O   0  0  0  0  0  0  0  0  0  0  0  0
  -13.2356   -0.0426  -24.0829 H   0  0  0  0  0  0  0  0  0  0  0  0
  -14.3865   -1.7515  -22.6457 H   0  0  0  0  0  0  0  0  0  0  0  0
  -10.5779   -3.2388  -21.3783 H   0  0  0  0  0  0  0  0  0  0  0  0
   -7.4988   -0.5544  -24.1393 H   0  0  0  0  0  0  0  0  0  0  0  0
   -8.8031   -1.3629  -25.0436 H   0  0  0  0  0  0  0  0  0  0  0  0
   -7.6232    1.7078  -24.1688 H   0  0  0  0  0  0  0  0  0  0  0  0
   -9.2051    2.5273  -24.3240 H   0  0  0  0  0  0  0  0  0  0  0  0
  -10.2816    2.3491  -26.4566 H   0  0  0  0  0  0  0  0  0  0  0  0
  -10.0879    2.9021  -28.7257 H   0  0  0  0  0  0  0  0  0  0  0  0
   -8.3146    2.9271  -28.5531 H   0  0  0  0  0  0  0  0  0  0  0  0
   -9.1404    1.3917  -28.8417 H   0  0  0  0  0  0  0  0  0  0  0  0
  1  2  1  0
  2  3  1  0
  3  4  2  0
  3  5  1  0
  5  6  1  0
  6  7  1  0
  8  7  1  6
  8  9  1  0
  9 10  2  0
  9 11  1  0
 11 12  1  0
 12 13  2  0
 13 14  1  0
 14 15  2  0
 15 16  1  0
 16 17  2  0
 17 18  1  0
 18 19  2  0
 19 20  1  0
 20 21  2  0
 20 22  1  0
 19 23  1  0
 18 24  1  0
 17 25  1  0
 15 26  1  0
 13 27  1  0
 11 28  1  0
 28 29  1  0
 29 30  1  0
 30 31  1  0
 31 32  1  0
 32 33  2  0
 33 34  1  0
 34 35  2  0
 35 36  1  0
 36 37  1  0
 36 38  1  0
 36 39  1  0
 35 40  1  0
 33 41  1  0
 31 42  1  0
 30 43  1  0
 30 44  1  0
 29 45  1  1
 28 46  1  0
 28 47  1  0
  8 48  1  0
 48 49  2  0
 49 50  1  0
 50 51  1  0
 50 52  2  0
 52 53  1  0
 53 54  2  0
 54 55  1  0
 55 56  2  0
 53 57  1  0
 52 58  1  0
 49 59  1  0
  7 60  1  0
  7 61  1  0
  5 62  1  0
  5 63  1  0
  2 64  1  0
  1 65  1  0
  1 66  1  0
  1 67  1  0
 55  6  1  0
 29  8  1  0
 40 32  1  0
 54 48  1  0
 21 12  1  0
 21 16  1  0
M  END
>  <cnnaffinities>  (47) 
[6.90068, 7.17215]

>  <score>  (47) 
6.90068

>  <index>  (47) 
49

>  <Smiles>  (47) 
C(N(C(=O)C(N1C([C@@]2(C(=O)N(c3c(nc(c4c(c(c(c(c34)[H])[H])[H])[H])[H])[H])C([C@@]2(C(N(c2c(nc(C([H])([H])[H])s2)[H])[H])([H])[H])[H])([H])[H])c2c(c(Cl)c(c(c2C1=O)[H])[H])[H])([H])[H])([H])[H])[H])([H])([H])[H]

>  <h>  (47) 
<NA>

>  <Training>  (47) 
True

>  <Success>  (47) 
True

>  <enamine_searched>  (47) 
False

>  <enamine_id>  (47) 
nan

$$$$

     RDKit          3D

 66 70  0  0  0  0  0  0  0  0999 V2000
   -7.4383    3.0693  -22.2802 C   0  0  0  0  0  0  0  0  0  0  0  0
   -8.5600    2.4702  -22.9742 N   0  0  0  0  0  0  0  0  0  0  0  0
   -8.3780    1.6607  -24.0478 C   0  0  0  0  0  0  0  0  0  0  0  0
   -7.2749    1.3473  -24.4739 O   0  0  0  0  0  0  0  0  0  0  0  0
   -9.6822    1.1804  -24.6999 C   0  0  0  0  0  0  0  0  0  0  0  0
  -10.2112   -0.0055  -24.0452 N   0  0  0  0  0  0  0  0  0  0  0  0
   -9.3625   -1.1787  -23.9607 C   0  0  0  0  0  0  0  0  0  0  0  0
   -9.4347   -1.8709  -22.5717 C   0  0  2  0  0  0  0  0  0  0  0  0
   -8.8103   -0.9300  -21.4913 C   0  0  0  0  0  0  0  0  0  0  0  0
   -9.3339    0.0504  -21.0014 O   0  0  0  0  0  0  0  0  0  0  0  0
   -7.5312   -1.3683  -21.1979 N   0  0  0  0  0  0  0  0  0  0  0  0
   -6.7343   -0.7934  -20.1660 C   0  0  0  0  0  0  0  0  0  0  0  0
   -7.0287   -1.0350  -18.8439 C   0  0  0  0  0  0  0  0  0  0  0  0
   -6.3034   -0.5695  -17.7952 N   0  0  0  0  0  0  0  0  0  0  0  0
   -5.2495    0.1627  -18.0678 C   0  0  0  0  0  0  0  0  0  0  0  0
   -4.8212    0.4934  -19.3834 C   0  0  0  0  0  0  0  0  0  0  0  0
   -3.6785    1.3048  -19.6262 C   0  0  0  0  0  0  0  0  0  0  0  0
   -3.3036    1.6105  -20.9049 C   0  0  0  0  0  0  0  0  0  0  0  0
   -4.0557    1.1298  -21.9991 C   0  0  0  0  0  0  0  0  0  0  0  0
   -5.1729    0.3521  -21.7890 C   0  0  0  0  0  0  0  0  0  0  0  0
   -5.5822    0.0028  -20.4742 C   0  0  0  0  0  0  0  0  0  0  0  0
   -5.7752    0.0482  -22.6394 H   0  0  0  0  0  0  0  0  0  0  0  0
   -3.7619    1.3847  -23.0129 H   0  0  0  0  0  0  0  0  0  0  0  0
   -2.4376    2.2423  -21.0873 H   0  0  0  0  0  0  0  0  0  0  0  0
   -3.1241    1.6893  -18.7731 H   0  0  0  0  0  0  0  0  0  0  0  0
   -4.6746    0.5409  -17.2218 H   0  0  0  0  0  0  0  0  0  0  0  0
   -7.8872   -1.6490  -18.5813 H   0  0  0  0  0  0  0  0  0  0  0  0
   -7.1208   -2.5155  -21.9896 C   0  0  0  0  0  0  0  0  0  0  0  0
   -8.4636   -3.0887  -22.4999 C   0  0  2  0  0  0  0  0  0  0  0  0
   -8.2870   -3.8864  -23.8018 C   0  0  0  0  0  0  0  0  0  0  0  0
   -7.3607   -4.9377  -23.6663 O   0  0  0  0  0  0  0  0  0  0  0  0
   -7.8439   -6.1630  -23.1343 C   0  0  0  0  0  0  0  0  0  0  0  0
   -8.2485   -7.1143  -24.2555 C   0  0  0  0  0  0  0  0  0  0  0  0
   -8.7152   -8.0173  -23.8479 H   0  0  0  0  0  0  0  0  0  0  0  0
   -8.9581   -6.6363  -24.9382 H   0  0  0  0  0  0  0  0  0  0  0  0
   -7.3729   -7.4128  -24.8389 H   0  0  0  0  0  0  0  0  0  0  0  0
   -6.7028   -6.7066  -22.2913 C   0  0  0  0  0  0  0  0  0  0  0  0
   -6.5022   -6.0327  -21.4508 H   0  0  0  0  0  0  0  0  0  0  0  0
   -5.7972   -6.7669  -22.9062 H   0  0  0  0  0  0  0  0  0  0  0  0
   -6.9448   -7.6980  -21.9003 H   0  0  0  0  0  0  0  0  0  0  0  0
   -8.7223   -5.9763  -22.4984 H   0  0  0  0  0  0  0  0  0  0  0  0
   -9.2649   -4.2412  -24.1702 H   0  0  0  0  0  0  0  0  0  0  0  0
   -7.8596   -3.2329  -24.5763 H   0  0  0  0  0  0  0  0  0  0  0  0
   -8.8353   -3.7648  -21.7191 H   0  0  0  0  0  0  0  0  0  0  0  0
   -6.4743   -2.2119  -22.8316 H   0  0  0  0  0  0  0  0  0  0  0  0
   -6.5612   -3.2343  -21.3801 H   0  0  0  0  0  0  0  0  0  0  0  0
  -10.9196   -2.1325  -22.3133 C   0  0  0  0  0  0  0  0  0  0  0  0
  -11.3923   -3.1875  -21.5252 C   0  0  0  0  0  0  0  0  0  0  0  0
  -12.7254   -3.2292  -21.1413 C   0  0  0  0  0  0  0  0  0  0  0  0
  -13.1464   -4.1223  -20.2303 F   0  0  0  0  0  0  0  0  0  0  0  0
  -13.6751   -2.3396  -21.6098 C   0  0  0  0  0  0  0  0  0  0  0  0
  -13.2317   -1.3396  -22.4458 C   0  0  0  0  0  0  0  0  0  0  0  0
  -11.8818   -1.2170  -22.7754 C   0  0  0  0  0  0  0  0  0  0  0  0
  -11.4912   -0.0099  -23.5739 C   0  0  0  0  0  0  0  0  0  0  0  0
  -12.2732    0.9162  -23.7697 O   0  0  0  0  0  0  0  0  0  0  0  0
  -13.9098   -0.6003  -22.8470 H   0  0  0  0  0  0  0  0  0  0  0  0
  -14.7122   -2.4508  -21.3075 H   0  0  0  0  0  0  0  0  0  0  0  0
  -10.7264   -3.9475  -21.1383 H   0  0  0  0  0  0  0  0  0  0  0  0
   -8.3405   -0.8475  -24.1568 H   0  0  0  0  0  0  0  0  0  0  0  0
   -9.6606   -1.8942  -24.7395 H   0  0  0  0  0  0  0  0  0  0  0  0
  -10.4643    1.9418  -24.6347 H   0  0  0  0  0  0  0  0  0  0  0  0
   -9.4743    0.9902  -25.7606 H   0  0  0  0  0  0  0  0  0  0  0  0
   -9.4321    2.3885  -22.4753 H   0  0  0  0  0  0  0  0  0  0  0  0
   -7.7941    3.9729  -21.7736 H   0  0  0  0  0  0  0  0  0  0  0  0
   -6.9851    2.3660  -21.5637 H   0  0  0  0  0  0  0  0  0  0  0  0
   -6.6877    3.3386  -23.0296 H   0  0  0  0  0  0  0  0  0  0  0  0
  1  2  1  0
  2  3  1  0
  3  4  2  0
  3  5  1  0
  5  6  1  0
  6  7  1  0
  8  7  1  6
  8  9  1  0
  9 10  2  0
  9 11  1  0
 11 12  1  0
 12 13  2  0
 13 14  1  0
 14 15  2  0
 15 16  1  0
 16 17  2  0
 17 18  1  0
 18 19  2  0
 19 20  1  0
 20 21  2  0
 20 22  1  0
 19 23  1  0
 18 24  1  0
 17 25  1  0
 15 26  1  0
 13 27  1  0
 11 28  1  0
 28 29  1  0
 29 30  1  0
 30 31  1  0
 31 32  1  0
 32 33  1  0
 33 34  1  0
 33 35  1  0
 33 36  1  0
 32 37  1  0
 37 38  1  0
 37 39  1  0
 37 40  1  0
 32 41  1  0
 30 42  1  0
 30 43  1  0
 29 44  1  1
 28 45  1  0
 28 46  1  0
  8 47  1  0
 47 48  2  0
 48 49  1  0
 49 50  1  0
 49 51  2  0
 51 52  1  0
 52 53  2  0
 53 54  1  0
 54 55  2  0
 52 56  1  0
 51 57  1  0
 48 58  1  0
  7 59  1  0
  7 60  1  0
  5 61  1  0
  5 62  1  0
  2 63  1  0
  1 64  1  0
  1 65  1  0
  1 66  1  0
 54  6  1  0
 29  8  1  0
 53 47  1  0
 21 12  1  0
 21 16  1  0
M  END
>  <cnnaffinities>  (48) 
[6.89447, 6.88935, 6.84063, 6.66195, 6.34806, 6.71601, 6.46042, 6.69951, 6.802, 6.47268]

>  <score>  (48) 
6.89447

>  <index>  (48) 
50

>  <Smiles>  (48) 
C(N(C(=O)C(N1C([C@@]2(C(=O)N(c3c(nc(c4c(c(c(c(c34)[H])[H])[H])[H])[H])[H])C([C@@]2(C(OC(C([H])([H])[H])(C([H])([H])[H])[H])([H])[H])[H])([H])[H])c2c(c(F)c(c(c2C1=O)[H])[H])[H])([H])[H])([H])[H])[H])([H])([H])[H]

>  <h>  (48) 
<NA>

>  <Training>  (48) 
True

>  <Success>  (48) 
True

>  <enamine_searched>  (48) 
False

>  <enamine_id>  (48) 
nan

$$$$

     RDKit          3D

 50 52  0  0  0  0  0  0  0  0999 V2000
   -8.6282   -0.1577  -24.6791 C   0  0  0  0  0  0  0  0  0  0  0  0
   -8.0137   -1.3098  -24.4206 C   0  0  0  0  0  0  0  0  0  0  0  0
   -8.7000   -2.4186  -23.6395 C   0  0  0  0  0  0  0  0  0  0  0  0
   -9.3584   -1.9534  -22.4116 N   0  0  0  0  0  0  0  0  0  0  0  0
   -8.6924   -1.1182  -21.5001 C   0  0  0  0  0  0  0  0  0  0  0  0
   -9.2303   -0.2311  -20.8640 O   0  0  0  0  0  0  0  0  0  0  0  0
   -7.3620   -1.4358  -21.2992 N   0  0  0  0  0  0  0  0  0  0  0  0
   -6.6138   -0.8579  -20.2403 C   0  0  0  0  0  0  0  0  0  0  0  0
   -6.9526   -1.0795  -18.9251 C   0  0  0  0  0  0  0  0  0  0  0  0
   -6.2746   -0.5870  -17.8541 N   0  0  0  0  0  0  0  0  0  0  0  0
   -5.2287    0.1662  -18.1107 C   0  0  0  0  0  0  0  0  0  0  0  0
   -4.7622    0.4749  -19.4210 C   0  0  0  0  0  0  0  0  0  0  0  0
   -3.6413    1.3195  -19.6430 C   0  0  0  0  0  0  0  0  0  0  0  0
   -3.2456    1.6224  -20.9182 C   0  0  0  0  0  0  0  0  0  0  0  0
   -3.9512    1.1049  -22.0306 C   0  0  0  0  0  0  0  0  0  0  0  0
   -5.0431    0.2904  -21.8446 C   0  0  0  0  0  0  0  0  0  0  0  0
   -5.4667   -0.0493  -20.5296 C   0  0  0  0  0  0  0  0  0  0  0  0
   -5.6067   -0.0655  -22.7031 H   0  0  0  0  0  0  0  0  0  0  0  0
   -3.6312    1.3597  -23.0407 H   0  0  0  0  0  0  0  0  0  0  0  0
   -2.3875    2.2686  -21.0857 H   0  0  0  0  0  0  0  0  0  0  0  0
   -3.1211    1.7262  -18.7782 H   0  0  0  0  0  0  0  0  0  0  0  0
   -4.6874    0.5827  -17.2604 H   0  0  0  0  0  0  0  0  0  0  0  0
   -7.8171   -1.7027  -18.7071 H   0  0  0  0  0  0  0  0  0  0  0  0
   -6.8716   -1.9693  -22.0075 H   0  0  0  0  0  0  0  0  0  0  0  0
  -10.7901   -1.9930  -22.4083 C   0  0  0  0  0  0  0  0  0  0  0  0
  -11.4555   -3.2212  -22.5125 C   0  0  0  0  0  0  0  0  0  0  0  0
  -12.8463   -3.2554  -22.5161 C   0  0  0  0  0  0  0  0  0  0  0  0
  -13.5835   -2.0763  -22.4822 C   0  0  0  0  0  0  0  0  0  0  0  0
  -12.9078   -0.8611  -22.4746 C   0  0  0  0  0  0  0  0  0  0  0  0
  -13.8312    0.6170  -22.6011 Cl  0  0  0  0  0  0  0  0  0  0  0  0
  -11.5210   -0.8036  -22.3980 C   0  0  0  0  0  0  0  0  0  0  0  0
  -11.0063    0.1466  -22.3111 H   0  0  0  0  0  0  0  0  0  0  0  0
  -14.6671   -2.0881  -22.4433 H   0  0  0  0  0  0  0  0  0  0  0  0
  -13.3613   -4.2107  -22.5800 H   0  0  0  0  0  0  0  0  0  0  0  0
  -10.8938   -4.1480  -22.6220 H   0  0  0  0  0  0  0  0  0  0  0  0
   -7.9614   -3.1927  -23.4226 H   0  0  0  0  0  0  0  0  0  0  0  0
   -9.4743   -2.8819  -24.2602 H   0  0  0  0  0  0  0  0  0  0  0  0
   -6.5716   -1.5638  -24.7717 C   0  0  0  0  0  0  0  0  0  0  0  0
   -5.9156   -2.4140  -24.1730 O   0  0  0  0  0  0  0  0  0  0  0  0
   -6.0325   -0.7738  -25.7366 N   0  0  0  0  0  0  0  0  0  0  0  0
   -4.6202   -0.8028  -26.0692 C   0  0  0  0  0  0  0  0  0  0  0  0
   -4.2233   -1.9572  -26.9743 C   0  0  0  0  0  0  0  0  0  0  0  0
   -4.4568   -2.9088  -26.4934 H   0  0  0  0  0  0  0  0  0  0  0  0
   -3.1465   -1.9260  -27.1585 H   0  0  0  0  0  0  0  0  0  0  0  0
   -4.7422   -1.9219  -27.9357 H   0  0  0  0  0  0  0  0  0  0  0  0
   -4.3539    0.1577  -26.5185 H   0  0  0  0  0  0  0  0  0  0  0  0
   -4.0607   -0.8780  -25.1352 H   0  0  0  0  0  0  0  0  0  0  0  0
   -6.6454   -0.1822  -26.2692 H   0  0  0  0  0  0  0  0  0  0  0  0
   -8.1289    0.6680  -25.1767 H   0  0  0  0  0  0  0  0  0  0  0  0
   -9.6639    0.0035  -24.3732 H   0  0  0  0  0  0  0  0  0  0  0  0
  1  2  2  0
  2  3  1  0
  3  4  1  0
  4  5  1  0
  5  6  2  0
  5  7  1  0
  7  8  1  0
  8  9  2  0
  9 10  1  0
 10 11  2  0
 11 12  1  0
 12 13  2  0
 13 14  1  0
 14 15  2  0
 15 16  1  0
 16 17  2  0
 16 18  1  0
 15 19  1  0
 14 20  1  0
 13 21  1  0
 11 22  1  0
  9 23  1  0
  7 24  1  0
  4 25  1  0
 25 26  2  0
 26 27  1  0
 27 28  2  0
 28 29  1  0
 29 30  1  0
 29 31  2  0
 31 32  1  0
 28 33  1  0
 27 34  1  0
 26 35  1  0
  3 36  1  0
  3 37  1  0
  2 38  1  0
 38 39  2  0
 38 40  1  0
 40 41  1  0
 41 42  1  0
 42 43  1  0
 42 44  1  0
 42 45  1  0
 41 46  1  0
 41 47  1  0
 40 48  1  0
  1 49  1  0
  1 50  1  0
 17  8  1  0
 31 25  1  0
 17 12  1  0
M  END
>  <cnnaffinities>  (49) 
[5.8959, 5.7098, 6.0758]

>  <score>  (49) 
5.8959

>  <index>  (49) 
51

>  <Smiles>  (49) 
C(=C(C(N(C(=O)N(c1c(nc(c2c(c(c(c(c12)[H])[H])[H])[H])[H])[H])[H])c1c(c(c(c(Cl)c1[H])[H])[H])[H])([H])[H])C(=O)N(C(C([H])([H])[H])([H])[H])[H])([H])[H]

>  <h>  (49) 
<NA>

>  <Training>  (49) 
True

>  <Success>  (49) 
True

>  <enamine_searched>  (49) 
False

>  <enamine_id>  (49) 
nan

$$$$

     RDKit          3D

 57 60  0  0  0  0  0  0  0  0999 V2000
   -6.4235    7.1124  -21.5766 C   0  0  0  0  0  0  0  0  0  0  0  0
   -6.7915    7.0129  -23.0525 C   0  0  0  0  0  0  0  0  0  0  0  0
   -7.8400    5.9292  -23.2864 C   0  0  0  0  0  0  0  0  0  0  0  0
   -9.0242    6.1958  -23.2673 O   0  0  0  0  0  0  0  0  0  0  0  0
   -7.3963    4.6370  -23.4911 N   0  0  0  0  0  0  0  0  0  0  0  0
   -8.2118    3.5350  -23.8782 C   0  0  0  0  0  0  0  0  0  0  0  0
   -9.2735    3.7188  -24.7615 C   0  0  0  0  0  0  0  0  0  0  0  0
  -10.0532    2.6267  -25.1254 C   0  0  0  0  0  0  0  0  0  0  0  0
   -9.7976    1.3466  -24.6454 C   0  0  0  0  0  0  0  0  0  0  0  0
   -8.7384    1.1479  -23.7540 C   0  0  0  0  0  0  0  0  0  0  0  0
   -8.4527   -0.1780  -23.2650 N   0  0  0  0  0  0  0  0  0  0  0  0
   -8.2139   -1.2634  -24.2222 C   0  0  0  0  0  0  0  0  0  0  0  0
   -6.8097   -1.2891  -24.7939 C   0  0  0  0  0  0  0  0  0  0  0  0
   -5.9410   -2.3535  -24.5478 C   0  0  0  0  0  0  0  0  0  0  0  0
   -4.6386   -2.3410  -25.0376 C   0  0  0  0  0  0  0  0  0  0  0  0
   -4.1862   -1.2624  -25.7884 C   0  0  0  0  0  0  0  0  0  0  0  0
   -5.0529   -0.2088  -26.0618 C   0  0  0  0  0  0  0  0  0  0  0  0
   -6.3563   -0.2258  -25.5756 C   0  0  0  0  0  0  0  0  0  0  0  0
   -7.0279    0.5989  -25.8029 H   0  0  0  0  0  0  0  0  0  0  0  0
   -4.7115    0.6308  -26.6596 H   0  0  0  0  0  0  0  0  0  0  0  0
   -3.1680   -1.2495  -26.1643 H   0  0  0  0  0  0  0  0  0  0  0  0
   -3.9812   -3.1771  -24.8286 H   0  0  0  0  0  0  0  0  0  0  0  0
   -6.2827   -3.2095  -23.9689 H   0  0  0  0  0  0  0  0  0  0  0  0
   -8.9295   -1.1651  -25.0455 H   0  0  0  0  0  0  0  0  0  0  0  0
   -8.4429   -2.2176  -23.7397 H   0  0  0  0  0  0  0  0  0  0  0  0
   -8.3615   -0.3414  -21.8778 C   0  0  0  0  0  0  0  0  0  0  0  0
   -9.0028    0.3624  -21.1238 O   0  0  0  0  0  0  0  0  0  0  0  0
   -7.4293   -1.4125  -21.2788 C   0  0  0  0  0  0  0  0  0  0  0  0
   -6.5739   -0.8321  -20.1712 C   0  0  0  0  0  0  0  0  0  0  0  0
   -6.8775   -1.0398  -18.8479 C   0  0  0  0  0  0  0  0  0  0  0  0
   -6.1941   -0.5363  -17.7846 N   0  0  0  0  0  0  0  0  0  0  0  0
   -5.1567    0.2211  -18.0594 C   0  0  0  0  0  0  0  0  0  0  0  0
   -4.7214    0.5345  -19.3792 C   0  0  0  0  0  0  0  0  0  0  0  0
   -3.5986    1.3701  -19.6216 C   0  0  0  0  0  0  0  0  0  0  0  0
   -3.2102    1.6606  -20.9017 C   0  0  0  0  0  0  0  0  0  0  0  0
   -3.9326    1.1245  -21.9928 C   0  0  0  0  0  0  0  0  0  0  0  0
   -5.0266    0.3158  -21.7879 C   0  0  0  0  0  0  0  0  0  0  0  0
   -5.4496   -0.0037  -20.4688 C   0  0  0  0  0  0  0  0  0  0  0  0
   -5.5571   -0.0781  -22.6533 H   0  0  0  0  0  0  0  0  0  0  0  0
   -3.6183    1.3598  -23.0051 H   0  0  0  0  0  0  0  0  0  0  0  0
   -2.3539    2.3045  -21.0894 H   0  0  0  0  0  0  0  0  0  0  0  0
   -3.0562    1.7814  -18.7732 H   0  0  0  0  0  0  0  0  0  0  0  0
   -4.5995    0.6287  -17.2153 H   0  0  0  0  0  0  0  0  0  0  0  0
   -7.7305   -1.6622  -18.5850 H   0  0  0  0  0  0  0  0  0  0  0  0
   -6.8042   -1.8958  -22.0345 H   0  0  0  0  0  0  0  0  0  0  0  0
   -8.0759   -2.1858  -20.8469 H   0  0  0  0  0  0  0  0  0  0  0  0
   -7.9363    2.2448  -23.3959 C   0  0  0  0  0  0  0  0  0  0  0  0
   -7.0995    2.0814  -22.7214 H   0  0  0  0  0  0  0  0  0  0  0  0
  -10.4440    0.5190  -24.9358 H   0  0  0  0  0  0  0  0  0  0  0  0
  -10.8865    2.7837  -25.8010 H   0  0  0  0  0  0  0  0  0  0  0  0
   -9.4871    4.7027  -25.1642 H   0  0  0  0  0  0  0  0  0  0  0  0
   -6.4397    4.4215  -23.2662 H   0  0  0  0  0  0  0  0  0  0  0  0
   -7.2420    7.9557  -23.3717 H   0  0  0  0  0  0  0  0  0  0  0  0
   -5.8965    6.8570  -23.6640 H   0  0  0  0  0  0  0  0  0  0  0  0
   -5.7035    7.9155  -21.3974 H   0  0  0  0  0  0  0  0  0  0  0  0
   -7.3017    7.3142  -20.9594 H   0  0  0  0  0  0  0  0  0  0  0  0
   -5.9803    6.1772  -21.2299 H   0  0  0  0  0  0  0  0  0  0  0  0
  1  2  1  0
  2  3  1  0
  3  4  2  0
  3  5  1  0
  5  6  1  0
  6  7  2  0
  7  8  1  0
  8  9  2  0
  9 10  1  0
 10 11  1  0
 11 12  1  0
 12 13  1  0
 13 14  2  0
 14 15  1  0
 15 16  2  0
 16 17  1  0
 17 18  2  0
 18 19  1  0
 17 20  1  0
 16 21  1  0
 15 22  1  0
 14 23  1  0
 12 24  1  0
 12 25  1  0
 11 26  1  0
 26 27  2  0
 26 28  1  0
 28 29  1  0
 29 30  2  0
 30 31  1  0
 31 32  2  0
 32 33  1  0
 33 34  2  0
 34 35  1  0
 35 36  2  0
 36 37  1  0
 37 38  2  0
 37 39  1  0
 36 40  1  0
 35 41  1  0
 34 42  1  0
 32 43  1  0
 30 44  1  0
 28 45  1  0
 28 46  1  0
 10 47  2  0
 47 48  1  0
  9 49  1  0
  8 50  1  0
  7 51  1  0
  5 52  1  0
  2 53  1  0
  2 54  1  0
  1 55  1  0
  1 56  1  0
  1 57  1  0
 47  6  1  0
 18 13  1  0
 38 29  1  0
 38 33  1  0
M  END
>  <cnnaffinities>  (50) 
[5.88497, 5.96829, 5.9717, 6.05965, 5.84125, 5.69522, 5.85433, 5.85352, 5.73758, 5.8531, 5.85185]

>  <score>  (50) 
5.88497

>  <index>  (50) 
52

>  <Smiles>  (50) 
C(C(C(=O)N(c1c(c(c(c(N(C(c2c(c(c(c(c2[H])[H])[H])[H])[H])([H])[H])C(=O)C(c2c(nc(c3c(c(c(c(c23)[H])[H])[H])[H])[H])[H])([H])[H])c1[H])[H])[H])[H])[H])([H])[H])([H])([H])[H]

>  <h>  (50) 
<NA>

>  <Training>  (50) 
True

>  <Success>  (50) 
True

>  <enamine_searched>  (50) 
False

>  <enamine_id>  (50) 
nan

$$$$

     RDKit          3D

 59 63  0  0  0  0  0  0  0  0999 V2000
   -7.7356    4.3791  -22.3619 C   0  0  0  0  0  0  0  0  0  0  0  0
   -6.8137    3.4529  -23.1303 C   0  0  0  0  0  0  0  0  0  0  0  0
   -7.6002    2.6965  -24.0901 N   0  0  0  0  0  0  0  0  0  0  0  0
   -6.9989    1.6991  -24.7839 C   0  0  0  0  0  0  0  0  0  0  0  0
   -5.7979    1.4811  -24.6986 O   0  0  0  0  0  0  0  0  0  0  0  0
   -7.9088    0.8685  -25.6898 C   0  0  0  0  0  0  0  0  0  0  0  0
   -8.8572    0.1016  -24.9042 N   0  0  0  0  0  0  0  0  0  0  0  0
   -8.4632   -1.1926  -24.3756 C   0  0  0  0  0  0  0  0  0  0  0  0
   -9.0283   -1.4601  -22.9541 C   0  0  2  0  0  0  0  0  0  0  0  0
   -8.3053   -0.5440  -21.9385 C   0  0  0  0  0  0  0  0  0  0  0  0
   -8.4227    0.6618  -21.8300 O   0  0  0  0  0  0  0  0  0  0  0  0
   -7.4644   -1.3230  -21.1820 N   0  0  0  0  0  0  0  0  0  0  0  0
   -6.6284   -0.7933  -20.1753 C   0  0  0  0  0  0  0  0  0  0  0  0
   -6.9135   -1.0653  -18.8624 C   0  0  0  0  0  0  0  0  0  0  0  0
   -6.2278   -0.5735  -17.8038 N   0  0  0  0  0  0  0  0  0  0  0  0
   -5.1972    0.1955  -18.0745 C   0  0  0  0  0  0  0  0  0  0  0  0
   -4.7629    0.5152  -19.3927 C   0  0  0  0  0  0  0  0  0  0  0  0
   -3.6285    1.3391  -19.6221 C   0  0  0  0  0  0  0  0  0  0  0  0
   -3.2186    1.6157  -20.8971 C   0  0  0  0  0  0  0  0  0  0  0  0
   -3.9172    1.0834  -22.0034 C   0  0  0  0  0  0  0  0  0  0  0  0
   -5.0176    0.2842  -21.8102 C   0  0  0  0  0  0  0  0  0  0  0  0
   -5.4816   -0.0055  -20.4931 C   0  0  0  0  0  0  0  0  0  0  0  0
   -5.5358   -0.1138  -22.6768 H   0  0  0  0  0  0  0  0  0  0  0  0
   -3.6038    1.3278  -23.0149 H   0  0  0  0  0  0  0  0  0  0  0  0
   -2.3489    2.2424  -21.0680 H   0  0  0  0  0  0  0  0  0  0  0  0
   -3.1022    1.7435  -18.7623 H   0  0  0  0  0  0  0  0  0  0  0  0
   -4.6383    0.6060  -17.2324 H   0  0  0  0  0  0  0  0  0  0  0  0
   -7.7664   -1.7001  -18.6269 H   0  0  0  0  0  0  0  0  0  0  0  0
   -7.4377   -2.7175  -21.5538 C   0  0  0  0  0  0  0  0  0  0  0  0
   -8.6703   -2.8919  -22.4479 C   0  0  2  0  0  0  0  0  0  0  0  0
   -8.4474   -3.9568  -23.5142 C   0  0  0  0  0  0  0  0  0  0  0  0
   -8.2614   -4.9257  -23.0422 H   0  0  0  0  0  0  0  0  0  0  0  0
   -7.5739   -3.7147  -24.1306 H   0  0  0  0  0  0  0  0  0  0  0  0
   -9.3149   -4.0590  -24.1732 H   0  0  0  0  0  0  0  0  0  0  0  0
   -9.4878   -3.2364  -21.8101 H   0  0  0  0  0  0  0  0  0  0  0  0
   -6.5099   -2.9841  -22.0828 H   0  0  0  0  0  0  0  0  0  0  0  0
   -7.4892   -3.3448  -20.6643 H   0  0  0  0  0  0  0  0  0  0  0  0
  -10.5131   -1.1506  -22.9832 C   0  0  0  0  0  0  0  0  0  0  0  0
  -11.4056   -1.7649  -22.1042 C   0  0  0  0  0  0  0  0  0  0  0  0
  -12.7587   -1.4876  -22.1684 C   0  0  0  0  0  0  0  0  0  0  0  0
  -13.8211   -2.4319  -21.1667 Cl  0  0  0  0  0  0  0  0  0  0  0  0
  -13.2787   -0.5045  -23.0110 C   0  0  0  0  0  0  0  0  0  0  0  0
  -12.3818    0.1787  -23.8115 C   0  0  0  0  0  0  0  0  0  0  0  0
  -11.0239   -0.1556  -23.8298 C   0  0  0  0  0  0  0  0  0  0  0  0
  -10.1170    0.5990  -24.7540 C   0  0  0  0  0  0  0  0  0  0  0  0
  -10.4747    1.6243  -25.3186 O   0  0  0  0  0  0  0  0  0  0  0  0
  -12.7049    1.0183  -24.4180 H   0  0  0  0  0  0  0  0  0  0  0  0
  -14.3458   -0.2771  -23.0359 H   0  0  0  0  0  0  0  0  0  0  0  0
  -11.0682   -2.4669  -21.3466 H   0  0  0  0  0  0  0  0  0  0  0  0
   -7.3724   -1.2474  -24.3363 H   0  0  0  0  0  0  0  0  0  0  0  0
   -8.8186   -1.9774  -25.0524 H   0  0  0  0  0  0  0  0  0  0  0  0
   -7.2882    0.1938  -26.2834 H   0  0  0  0  0  0  0  0  0  0  0  0
   -8.4718    1.5171  -26.3694 H   0  0  0  0  0  0  0  0  0  0  0  0
   -8.6038    2.7048  -23.9574 H   0  0  0  0  0  0  0  0  0  0  0  0
   -6.3071    2.7492  -22.4511 H   0  0  0  0  0  0  0  0  0  0  0  0
   -6.0377    3.9998  -23.6774 H   0  0  0  0  0  0  0  0  0  0  0  0
   -8.4917    3.7712  -21.8628 H   0  0  0  0  0  0  0  0  0  0  0  0
   -8.2352    5.0952  -23.0263 H   0  0  0  0  0  0  0  0  0  0  0  0
   -7.1922    4.9356  -21.5934 H   0  0  0  0  0  0  0  0  0  0  0  0
  1  2  1  0
  2  3  1  0
  3  4  1  0
  4  5  2  0
  4  6  1  0
  6  7  1  0
  7  8  1  0
  9  8  1  6
  9 10  1  0
 10 11  2  0
 10 12  1  0
 12 13  1  0
 13 14  2  0
 14 15  1  0
 15 16  2  0
 16 17  1  0
 17 18  2  0
 18 19  1  0
 19 20  2  0
 20 21  1  0
 21 22  2  0
 21 23  1  0
 20 24  1  0
 19 25  1  0
 18 26  1  0
 16 27  1  0
 14 28  1  0
 12 29  1  0
 29 30  1  0
 30 31  1  0
 31 32  1  0
 31 33  1  0
 31 34  1  0
 30 35  1  1
 29 36  1  0
 29 37  1  0
  9 38  1  0
 38 39  2  0
 39 40  1  0
 40 41  1  0
 40 42  2  0
 42 43  1  0
 43 44  2  0
 44 45  1  0
 45 46  2  0
 43 47  1  0
 42 48  1  0
 39 49  1  0
  8 50  1  0
  8 51  1  0
  6 52  1  0
  6 53  1  0
  3 54  1  0
  2 55  1  0
  2 56  1  0
  1 57  1  0
  1 58  1  0
  1 59  1  0
 45  7  1  0
 30  9  1  0
 44 38  1  0
 22 13  1  0
 22 17  1  0
M  END
>  <cnnaffinities>  (51) 
[6.54561]

>  <score>  (51) 
6.54561

>  <index>  (51) 
53

>  <Smiles>  (51) 
C(C(N(C(=O)C(N1C([C@@]2(C(=O)N(c3c(nc(c4c(c(c(c(c34)[H])[H])[H])[H])[H])[H])C([C@@]2(C([H])([H])[H])[H])([H])[H])c2c(c(Cl)c(c(c2C1=O)[H])[H])[H])([H])[H])([H])[H])[H])([H])[H])([H])([H])[H]

>  <h>  (51) 
<NA>

>  <Training>  (51) 
True

>  <Success>  (51) 
True

>  <enamine_searched>  (51) 
False

>  <enamine_id>  (51) 
nan

$$$$

     RDKit          3D

 40 43  0  0  0  0  0  0  0  0999 V2000
   -9.4000   -3.8591  -22.7308 C   0  0  0  0  0  0  0  0  0  0  0  0
   -8.6374   -2.6785  -22.3752 N   0  0  0  0  0  0  0  0  0  0  0  0
   -8.7249   -1.4138  -22.8872 C   0  0  0  0  0  0  0  0  0  0  0  0
   -9.5757   -1.0545  -24.0588 C   0  0  0  0  0  0  0  0  0  0  0  0
  -10.9992   -0.8206  -23.6003 C   0  0  0  0  0  0  0  0  0  0  0  0
  -12.0044   -1.7541  -23.8404 C   0  0  0  0  0  0  0  0  0  0  0  0
  -13.3017   -1.5360  -23.3767 C   0  0  0  0  0  0  0  0  0  0  0  0
  -13.5965   -0.3802  -22.6586 C   0  0  0  0  0  0  0  0  0  0  0  0
  -12.5886    0.5446  -22.3901 C   0  0  0  0  0  0  0  0  0  0  0  0
  -11.2937    0.3178  -22.8479 C   0  0  0  0  0  0  0  0  0  0  0  0
  -10.4928    1.0182  -22.6135 H   0  0  0  0  0  0  0  0  0  0  0  0
  -12.8104    1.4408  -21.8116 H   0  0  0  0  0  0  0  0  0  0  0  0
  -14.6100   -0.2037  -22.3031 H   0  0  0  0  0  0  0  0  0  0  0  0
  -14.0891   -2.2619  -23.5689 H   0  0  0  0  0  0  0  0  0  0  0  0
  -11.7624   -2.6668  -24.3869 H   0  0  0  0  0  0  0  0  0  0  0  0
   -9.1604   -0.1425  -24.5004 H   0  0  0  0  0  0  0  0  0  0  0  0
   -9.5510   -1.8249  -24.8428 H   0  0  0  0  0  0  0  0  0  0  0  0
   -8.0204   -0.5591  -22.2047 N   0  0  0  0  0  0  0  0  0  0  0  0
   -7.4076   -1.3006  -21.2335 N   0  0  0  0  0  0  0  0  0  0  0  0
   -6.6260   -0.7458  -20.1903 C   0  0  0  0  0  0  0  0  0  0  0  0
   -6.9179   -1.0312  -18.8765 C   0  0  0  0  0  0  0  0  0  0  0  0
   -6.2183   -0.5508  -17.8208 N   0  0  0  0  0  0  0  0  0  0  0  0
   -5.1834    0.2084  -18.0954 C   0  0  0  0  0  0  0  0  0  0  0  0
   -4.7376    0.5328  -19.4045 C   0  0  0  0  0  0  0  0  0  0  0  0
   -3.5990    1.3475  -19.6302 C   0  0  0  0  0  0  0  0  0  0  0  0
   -3.1872    1.6104  -20.9052 C   0  0  0  0  0  0  0  0  0  0  0  0
   -3.8775    1.0593  -22.0097 C   0  0  0  0  0  0  0  0  0  0  0  0
   -4.9853    0.2746  -21.8199 C   0  0  0  0  0  0  0  0  0  0  0  0
   -5.4676    0.0264  -20.5046 C   0  0  0  0  0  0  0  0  0  0  0  0
   -5.5259   -0.1461  -22.6619 H   0  0  0  0  0  0  0  0  0  0  0  0
   -3.5407    1.2847  -23.0171 H   0  0  0  0  0  0  0  0  0  0  0  0
   -2.3320    2.2562  -21.0780 H   0  0  0  0  0  0  0  0  0  0  0  0
   -3.0853    1.7587  -18.7647 H   0  0  0  0  0  0  0  0  0  0  0  0
   -4.6361    0.6057  -17.2438 H   0  0  0  0  0  0  0  0  0  0  0  0
   -7.7473   -1.6915  -18.6331 H   0  0  0  0  0  0  0  0  0  0  0  0
   -7.6470   -2.6530  -21.3962 C   0  0  0  0  0  0  0  0  0  0  0  0
   -7.0780   -3.5720  -20.8519 O   0  0  0  0  0  0  0  0  0  0  0  0
   -8.8692   -4.7155  -22.3129 H   0  0  0  0  0  0  0  0  0  0  0  0
  -10.4239   -3.8252  -22.3359 H   0  0  0  0  0  0  0  0  0  0  0  0
   -9.4446   -3.9555  -23.8188 H   0  0  0  0  0  0  0  0  0  0  0  0
  1  2  1  0
  2  3  1  0
  3  4  1  0
  4  5  1  0
  5  6  2  0
  6  7  1  0
  7  8  2  0
  8  9  1  0
  9 10  2  0
 10 11  1  0
  9 12  1  0
  8 13  1  0
  7 14  1  0
  6 15  1  0
  4 16  1  0
  4 17  1  0
  3 18  2  0
 18 19  1  0
 19 20  1  0
 20 21  2  0
 21 22  1  0
 22 23  2  0
 23 24  1  0
 24 25  2  0
 25 26  1  0
 26 27  2  0
 27 28  1  0
 28 29  2  0
 28 30  1  0
 27 31  1  0
 26 32  1  0
 25 33  1  0
 23 34  1  0
 21 35  1  0
 19 36  1  0
 36 37  2  0
  1 38  1  0
  1 39  1  0
  1 40  1  0
 36  2  1  0
 10  5  1  0
 29 20  1  0
 29 24  1  0
M  END
>  <cnnaffinities>  (52) 
[5.3196, 5.31954, 5.16837, 5.16878, 5.37781, 5.37783]

>  <score>  (52) 
5.3196

>  <index>  (52) 
54

>  <Smiles>  (52) 
C(n1c(C(c2c(c(c(c(c2[H])[H])[H])[H])[H])([H])[H])nn(c2c(nc(c3c(c(c(c(c23)[H])[H])[H])[H])[H])[H])c1=O)([H])([H])[H]

>  <h>  (52) 
<NA>

>  <Training>  (52) 
True

>  <Success>  (52) 
True

>  <enamine_searched>  (52) 
False

>  <enamine_id>  (52) 
nan

$$$$

     RDKit          3D

 61 66  0  0  0  0  0  0  0  0999 V2000
   -6.6187   -3.3635  -26.0960 C   0  0  0  0  0  0  0  0  0  0  0  0
   -6.9049   -2.8071  -24.8337 O   0  0  0  0  0  0  0  0  0  0  0  0
   -7.9054   -3.5292  -24.1424 C   0  0  0  0  0  0  0  0  0  0  0  0
   -8.2712   -2.8419  -22.8239 C   0  0  1  0  0  0  0  0  0  0  0  0
   -7.0346   -2.5583  -21.9538 C   0  0  0  0  0  0  0  0  0  0  0  0
   -7.3982   -1.3681  -21.2103 N   0  0  0  0  0  0  0  0  0  0  0  0
   -6.6019   -0.8077  -20.1761 C   0  0  0  0  0  0  0  0  0  0  0  0
   -6.9186   -1.0445  -18.8653 C   0  0  0  0  0  0  0  0  0  0  0  0
   -6.2279   -0.5512  -17.8052 N   0  0  0  0  0  0  0  0  0  0  0  0
   -5.1902    0.2090  -18.0716 C   0  0  0  0  0  0  0  0  0  0  0  0
   -4.7536    0.5386  -19.3873 C   0  0  0  0  0  0  0  0  0  0  0  0
   -3.6299    1.3755  -19.6273 C   0  0  0  0  0  0  0  0  0  0  0  0
   -3.2443    1.6693  -20.9068 C   0  0  0  0  0  0  0  0  0  0  0  0
   -3.9480    1.1369  -22.0075 C   0  0  0  0  0  0  0  0  0  0  0  0
   -5.0283    0.3114  -21.8024 C   0  0  0  0  0  0  0  0  0  0  0  0
   -5.4662    0.0015  -20.4839 C   0  0  0  0  0  0  0  0  0  0  0  0
   -5.5742   -0.0825  -22.6562 H   0  0  0  0  0  0  0  0  0  0  0  0
   -3.6195    1.3789  -23.0170 H   0  0  0  0  0  0  0  0  0  0  0  0
   -2.3809    2.3040  -21.0867 H   0  0  0  0  0  0  0  0  0  0  0  0
   -3.0830    1.7649  -18.7744 H   0  0  0  0  0  0  0  0  0  0  0  0
   -4.6227    0.6037  -17.2263 H   0  0  0  0  0  0  0  0  0  0  0  0
   -7.7842   -1.6611  -18.6287 H   0  0  0  0  0  0  0  0  0  0  0  0
   -8.5445   -0.7441  -21.6473 C   0  0  0  0  0  0  0  0  0  0  0  0
   -9.0321    0.2458  -21.1399 O   0  0  0  0  0  0  0  0  0  0  0  0
   -9.0916   -1.5154  -22.8701 C   0  0  1  0  0  0  0  0  0  0  0  0
   -8.8156   -0.7135  -24.1676 C   0  0  0  0  0  0  0  0  0  0  0  0
   -9.6428    0.4726  -24.2749 N   0  0  0  0  0  0  0  0  0  0  0  0
   -9.0163    1.7086  -24.7174 C   0  0  0  0  0  0  0  0  0  0  0  0
   -8.2487    2.3987  -23.6264 C   0  0  0  0  0  0  0  0  0  0  0  0
   -6.9174    2.4473  -23.3953 C   0  0  0  0  0  0  0  0  0  0  0  0
   -6.7128    3.2103  -22.2659 N   0  0  0  0  0  4  0  0  0  0  0  0
   -7.8924    3.6327  -21.8172 C   0  0  0  0  0  0  0  0  0  0  0  0
   -8.8469    3.1409  -22.6228 N   0  0  0  0  0  0  0  0  0  0  0  0
   -9.8359    3.1375  -22.3881 H   0  0  0  0  0  0  0  0  0  0  0  0
   -8.0762    4.3086  -20.9966 H   0  0  0  0  0  0  0  0  0  0  0  0
   -5.8111    3.2350  -21.8045 H   0  0  0  0  0  0  0  0  0  0  0  0
   -6.0766    1.9876  -23.8952 H   0  0  0  0  0  0  0  0  0  0  0  0
   -9.8164    2.3578  -25.0862 H   0  0  0  0  0  0  0  0  0  0  0  0
   -8.3491    1.4794  -25.5610 H   0  0  0  0  0  0  0  0  0  0  0  0
  -10.9775    0.4611  -23.9981 C   0  0  0  0  0  0  0  0  0  0  0  0
  -11.7169    1.3983  -24.2602 O   0  0  0  0  0  0  0  0  0  0  0  0
  -11.4820   -0.7717  -23.3177 C   0  0  0  0  0  0  0  0  0  0  0  0
  -12.8628   -0.9130  -23.1983 C   0  0  0  0  0  0  0  0  0  0  0  0
  -13.3919   -1.8782  -22.3723 C   0  0  0  0  0  0  0  0  0  0  0  0
  -12.5090   -2.6809  -21.6506 C   0  0  0  0  0  0  0  0  0  0  0  0
  -13.1848   -3.7355  -20.4500 Cl  0  0  0  0  0  0  0  0  0  0  0  0
  -11.1366   -2.6080  -21.8237 C   0  0  0  0  0  0  0  0  0  0  0  0
  -10.5971   -1.6722  -22.7144 C   0  0  0  0  0  0  0  0  0  0  0  0
  -10.4932   -3.2631  -21.2447 H   0  0  0  0  0  0  0  0  0  0  0  0
  -14.4618   -1.9888  -22.2259 H   0  0  0  0  0  0  0  0  0  0  0  0
  -13.4992   -0.2190  -23.7323 H   0  0  0  0  0  0  0  0  0  0  0  0
   -8.9953   -1.3730  -25.0218 H   0  0  0  0  0  0  0  0  0  0  0  0
   -7.7700   -0.4024  -24.2034 H   0  0  0  0  0  0  0  0  0  0  0  0
   -6.1452   -2.3904  -22.5736 H   0  0  0  0  0  0  0  0  0  0  0  0
   -6.8203   -3.3855  -21.2670 H   0  0  0  0  0  0  0  0  0  0  0  0
   -8.8948   -3.5673  -22.2973 H   0  0  0  0  0  0  0  0  0  0  0  0
   -7.5374   -4.5477  -23.9252 H   0  0  0  0  0  0  0  0  0  0  0  0
   -8.8068   -3.6344  -24.7726 H   0  0  0  0  0  0  0  0  0  0  0  0
   -7.5008   -3.3410  -26.7581 H   0  0  0  0  0  0  0  0  0  0  0  0
   -6.2605   -4.4044  -26.0165 H   0  0  0  0  0  0  0  0  0  0  0  0
   -5.8294   -2.7615  -26.5533 H   0  0  0  0  0  0  0  0  0  0  0  0
  1  2  1  0
  2  3  1  0
  3  4  1  0
  4  5  1  0
  5  6  1  0
  6  7  1  0
  7  8  2  0
  8  9  1  0
  9 10  2  0
 10 11  1  0
 11 12  2  0
 12 13  1  0
 13 14  2  0
 14 15  1  0
 15 16  2  0
 15 17  1  0
 14 18  1  0
 13 19  1  0
 12 20  1  0
 10 21  1  0
  8 22  1  0
  6 23  1  0
 23 24  2  0
 23 25  1  0
 25 26  1  6
 26 27  1  0
 27 28  1  0
 28 29  1  0
 29 30  2  0
 30 31  1  0
 31 32  2  0
 32 33  1  0
 33 34  1  0
 32 35  1  0
 31 36  1  0
 30 37  1  0
 28 38  1  0
 28 39  1  0
 27 40  1  0
 40 41  2  0
 40 42  1  0
 42 43  2  0
 43 44  1  0
 44 45  2  0
 45 46  1  0
 45 47  1  0
 47 48  2  0
 47 49  1  0
 44 50  1  0
 43 51  1  0
 26 52  1  0
 26 53  1  0
  5 54  1  0
  5 55  1  0
  4 56  1  1
  3 57  1  0
  3 58  1  0
  1 59  1  0
  1 60  1  0
  1 61  1  0
 25  4  1  0
 33 29  1  0
 48 42  1  0
 16  7  1  0
 48 25  1  0
 16 11  1  0
M  CHG  1  31   1
M  END
>  <cnnaffinities>  (53) 
[6.50462, 6.56144, 6.54526, 6.50348, 6.50579, 6.58513]

>  <score>  (53) 
6.50462

>  <index>  (53) 
55

>  <Smiles>  (53) 
C(OC([C@]1(C(N(c2c(nc(c3c(c(c(c(c23)[H])[H])[H])[H])[H])[H])C(=O)[C@]21C(N(C(c1c([n+](c(n1[H])[H])[H])[H])([H])[H])C(=O)c1c(c(c(Cl)c(c21)[H])[H])[H])([H])[H])([H])[H])[H])([H])[H])([H])([H])[H]

>  <h>  (53) 
<NA>

>  <Training>  (53) 
True

>  <Success>  (53) 
True

>  <enamine_searched>  (53) 
False

>  <enamine_id>  (53) 
nan

$$$$

     RDKit          3D

 57 62  0  0  0  0  0  0  0  0999 V2000
   -7.5160   -3.5834  -23.7478 C   0  0  0  0  0  0  0  0  0  0  0  0
   -8.4088   -2.9152  -22.7009 C   0  0  1  0  0  0  0  0  0  0  0  0
   -7.7243   -2.7306  -21.3320 C   0  0  0  0  0  0  0  0  0  0  0  0
   -7.4152   -1.3197  -21.2617 N   0  0  0  0  0  0  0  0  0  0  0  0
   -6.6198   -0.7842  -20.2233 C   0  0  0  0  0  0  0  0  0  0  0  0
   -6.9154   -1.0666  -18.9127 C   0  0  0  0  0  0  0  0  0  0  0  0
   -6.2424   -0.5798  -17.8405 N   0  0  0  0  0  0  0  0  0  0  0  0
   -5.2097    0.1932  -18.0851 C   0  0  0  0  0  0  0  0  0  0  0  0
   -4.7560    0.5205  -19.3952 C   0  0  0  0  0  0  0  0  0  0  0  0
   -3.6178    1.3453  -19.6032 C   0  0  0  0  0  0  0  0  0  0  0  0
   -3.1823    1.6176  -20.8714 C   0  0  0  0  0  0  0  0  0  0  0  0
   -3.8505    1.0683  -21.9879 C   0  0  0  0  0  0  0  0  0  0  0  0
   -4.9534    0.2704  -21.8126 C   0  0  0  0  0  0  0  0  0  0  0  0
   -5.4561    0.0029  -20.5075 C   0  0  0  0  0  0  0  0  0  0  0  0
   -5.4574   -0.1573  -22.6727 H   0  0  0  0  0  0  0  0  0  0  0  0
   -3.4923    1.2872  -22.9904 H   0  0  0  0  0  0  0  0  0  0  0  0
   -2.3207    2.2608  -21.0306 H   0  0  0  0  0  0  0  0  0  0  0  0
   -3.1080    1.7552  -18.7347 H   0  0  0  0  0  0  0  0  0  0  0  0
   -4.6668    0.5931  -17.2268 H   0  0  0  0  0  0  0  0  0  0  0  0
   -7.7651   -1.7038  -18.6732 H   0  0  0  0  0  0  0  0  0  0  0  0
   -8.1734   -0.5551  -22.1254 C   0  0  0  0  0  0  0  0  0  0  0  0
   -8.2034    0.6545  -22.1315 O   0  0  0  0  0  0  0  0  0  0  0  0
   -8.9685   -1.5058  -23.0542 C   0  0  1  0  0  0  0  0  0  0  0  0
   -8.7503   -1.0836  -24.5265 C   0  0  0  0  0  0  0  0  0  0  0  0
   -9.3220    0.2276  -24.7982 N   0  0  0  0  0  0  0  0  0  0  0  0
   -8.5626    1.1875  -25.5788 C   0  0  0  0  0  0  0  0  0  0  0  0
   -8.5511    0.9093  -27.0696 C   0  0  0  0  0  0  0  0  0  0  0  0
   -8.0409   -0.2619  -27.4732 N   0  0  0  0  0  0  0  0  0  0  0  0
   -8.0369   -0.4653  -28.7896 C   0  0  0  0  0  0  0  0  0  0  0  0
   -8.5475    0.4430  -29.7030 C   0  0  0  0  0  0  0  0  0  0  0  0
   -9.0783    1.6053  -29.1692 C   0  0  0  0  0  0  0  0  0  0  0  0
   -9.0593    1.8529  -27.8600 N   0  0  0  0  0  0  0  0  0  0  0  0
   -9.5560    2.3612  -29.7927 H   0  0  0  0  0  0  0  0  0  0  0  0
   -8.5659    0.2527  -30.7725 H   0  0  0  0  0  0  0  0  0  0  0  0
   -7.6148   -1.4088  -29.1288 H   0  0  0  0  0  0  0  0  0  0  0  0
   -9.0195    2.1689  -25.4148 H   0  0  0  0  0  0  0  0  0  0  0  0
   -7.5293    1.1717  -25.2048 H   0  0  0  0  0  0  0  0  0  0  0  0
  -10.5342    0.6240  -24.3153 C   0  0  0  0  0  0  0  0  0  0  0  0
  -11.0645    1.6756  -24.6554 O   0  0  0  0  0  0  0  0  0  0  0  0
  -11.1842   -0.3255  -23.3637 C   0  0  0  0  0  0  0  0  0  0  0  0
  -12.5527   -0.1689  -23.1497 C   0  0  0  0  0  0  0  0  0  0  0  0
  -13.2494   -1.0943  -22.4022 C   0  0  0  0  0  0  0  0  0  0  0  0
  -12.5282   -2.1225  -21.8112 C   0  0  0  0  0  0  0  0  0  0  0  0
  -13.1801   -2.9624  -20.9823 F   0  0  0  0  0  0  0  0  0  0  0  0
  -11.1697   -2.2862  -21.9715 C   0  0  0  0  0  0  0  0  0  0  0  0
  -10.4681   -1.3831  -22.7830 C   0  0  0  0  0  0  0  0  0  0  0  0
  -10.7123   -3.1203  -21.4331 H   0  0  0  0  0  0  0  0  0  0  0  0
  -14.3241   -1.0333  -22.2466 H   0  0  0  0  0  0  0  0  0  0  0  0
  -13.0448    0.6665  -23.6331 H   0  0  0  0  0  0  0  0  0  0  0  0
   -9.2036   -1.8325  -25.1898 H   0  0  0  0  0  0  0  0  0  0  0  0
   -7.6860   -1.0308  -24.7664 H   0  0  0  0  0  0  0  0  0  0  0  0
   -8.4043   -3.0064  -20.5158 H   0  0  0  0  0  0  0  0  0  0  0  0
   -6.8054   -3.3146  -21.2283 H   0  0  0  0  0  0  0  0  0  0  0  0
   -9.2464   -3.6021  -22.5903 H   0  0  0  0  0  0  0  0  0  0  0  0
   -6.6153   -3.0016  -23.9637 H   0  0  0  0  0  0  0  0  0  0  0  0
   -8.0715   -3.7263  -24.6800 H   0  0  0  0  0  0  0  0  0  0  0  0
   -7.2163   -4.5766  -23.3969 H   0  0  0  0  0  0  0  0  0  0  0  0
  1  2  1  0
  2  3  1  0
  3  4  1  0
  4  5  1  0
  5  6  2  0
  6  7  1  0
  7  8  2  0
  8  9  1  0
  9 10  2  0
 10 11  1  0
 11 12  2  0
 12 13  1  0
 13 14  2  0
 13 15  1  0
 12 16  1  0
 11 17  1  0
 10 18  1  0
  8 19  1  0
  6 20  1  0
  4 21  1  0
 21 22  2  0
 21 23  1  0
 23 24  1  6
 24 25  1  0
 25 26  1  0
 26 27  1  0
 27 28  2  0
 28 29  1  0
 29 30  2  0
 30 31  1  0
 31 32  2  0
 31 33  1  0
 30 34  1  0
 29 35  1  0
 26 36  1  0
 26 37  1  0
 25 38  1  0
 38 39  2  0
 38 40  1  0
 40 41  2  0
 41 42  1  0
 42 43  2  0
 43 44  1  0
 43 45  1  0
 45 46  2  0
 45 47  1  0
 42 48  1  0
 41 49  1  0
 24 50  1  0
 24 51  1  0
  3 52  1  0
  3 53  1  0
  2 54  1  1
  1 55  1  0
  1 56  1  0
  1 57  1  0
 23  2  1  0
 32 27  1  0
 46 40  1  0
 14  5  1  0
 46 23  1  0
 14  9  1  0
M  END
>  <cnnaffinities>  (54) 
[6.16427, 6.53098, 6.51138]

>  <score>  (54) 
6.16427

>  <index>  (54) 
56

>  <Smiles>  (54) 
C([C@]1(C(N(c2c(nc(c3c(c(c(c(c23)[H])[H])[H])[H])[H])[H])C(=O)[C@]21C(N(C(c1nc(c(c(n1)[H])[H])[H])([H])[H])C(=O)c1c(c(c(F)c(c21)[H])[H])[H])([H])[H])([H])[H])[H])([H])([H])[H]

>  <h>  (54) 
<NA>

>  <Training>  (54) 
True

>  <Success>  (54) 
True

>  <enamine_searched>  (54) 
False

>  <enamine_id>  (54) 
nan

$$$$

     RDKit          3D

 59 63  0  0  0  0  0  0  0  0999 V2000
  -14.6072   -1.0087  -23.6260 C   0  0  0  0  0  0  0  0  0  0  0  0
  -13.7740   -2.1367  -23.2519 N   0  0  0  0  0  0  0  0  0  0  0  0
  -13.4959   -2.4106  -21.9485 C   0  0  0  0  0  0  0  0  0  0  0  0
  -14.0131   -1.8281  -21.0166 O   0  0  0  0  0  0  0  0  0  0  0  0
  -12.5628   -3.6012  -21.7230 C   0  0  0  0  0  0  0  0  0  0  0  0
  -11.2249   -3.5561  -22.2868 N   0  0  0  0  0  0  0  0  0  0  0  0
  -10.0687   -3.2318  -21.4500 C   0  0  0  0  0  0  0  0  0  0  0  0
   -8.8272   -2.8880  -22.3119 C   0  0  2  0  0  0  0  0  0  0  0  0
   -7.6135   -2.6943  -21.3927 C   0  0  0  0  0  0  0  0  0  0  0  0
   -6.9272   -3.5682  -20.8966 O   0  0  0  0  0  0  0  0  0  0  0  0
   -7.3835   -1.3447  -21.2389 N   0  0  0  0  0  0  0  0  0  0  0  0
   -6.5866   -0.8499  -20.1800 C   0  0  0  0  0  0  0  0  0  0  0  0
   -6.9039   -1.1066  -18.8695 C   0  0  0  0  0  0  0  0  0  0  0  0
   -6.2433   -0.5791  -17.8064 N   0  0  0  0  0  0  0  0  0  0  0  0
   -5.2199    0.2021  -18.0665 C   0  0  0  0  0  0  0  0  0  0  0  0
   -4.7645    0.5172  -19.3798 C   0  0  0  0  0  0  0  0  0  0  0  0
   -3.6348    1.3431  -19.6143 C   0  0  0  0  0  0  0  0  0  0  0  0
   -3.2288    1.6116  -20.8931 C   0  0  0  0  0  0  0  0  0  0  0  0
   -3.9257    1.0713  -21.9979 C   0  0  0  0  0  0  0  0  0  0  0  0
   -5.0224    0.2710  -21.7973 C   0  0  0  0  0  0  0  0  0  0  0  0
   -5.4671   -0.0182  -20.4792 C   0  0  0  0  0  0  0  0  0  0  0  0
   -5.5517   -0.1530  -22.6449 H   0  0  0  0  0  0  0  0  0  0  0  0
   -3.5938    1.2949  -23.0081 H   0  0  0  0  0  0  0  0  0  0  0  0
   -2.3676    2.2494  -21.0709 H   0  0  0  0  0  0  0  0  0  0  0  0
   -3.1084    1.7563  -18.7578 H   0  0  0  0  0  0  0  0  0  0  0  0
   -4.6861    0.6279  -17.2157 H   0  0  0  0  0  0  0  0  0  0  0  0
   -7.7413   -1.7596  -18.6308 H   0  0  0  0  0  0  0  0  0  0  0  0
   -8.3727   -0.5228  -21.9181 C   0  0  0  0  0  0  0  0  0  0  0  0
   -8.9766   -1.4508  -22.9988 C   0  0  0  0  0  0  0  0  0  0  0  0
  -10.4178   -1.0212  -23.3041 C   0  0  0  0  0  0  0  0  0  0  0  0
  -10.8702   -1.7200  -24.0132 H   0  0  0  0  0  0  0  0  0  0  0  0
  -10.4354   -0.0223  -23.7513 H   0  0  0  0  0  0  0  0  0  0  0  0
  -11.0287   -0.9932  -22.3966 H   0  0  0  0  0  0  0  0  0  0  0  0
   -8.1965   -1.4005  -24.3216 C   0  0  0  0  0  0  0  0  0  0  0  0
   -8.6266   -2.1265  -25.0201 H   0  0  0  0  0  0  0  0  0  0  0  0
   -8.2742   -0.4094  -24.7781 H   0  0  0  0  0  0  0  0  0  0  0  0
   -7.1387   -1.6576  -24.1945 H   0  0  0  0  0  0  0  0  0  0  0  0
   -9.1557   -0.1976  -21.2126 H   0  0  0  0  0  0  0  0  0  0  0  0
   -7.9187    0.3820  -22.3342 H   0  0  0  0  0  0  0  0  0  0  0  0
   -8.6082   -4.0455  -23.2579 C   0  0  0  0  0  0  0  0  0  0  0  0
   -7.3300   -4.4490  -23.6616 C   0  0  0  0  0  0  0  0  0  0  0  0
   -7.1969   -5.4521  -24.6063 C   0  0  0  0  0  0  0  0  0  0  0  0
   -5.6043   -5.8825  -25.1647 Cl  0  0  0  0  0  0  0  0  0  0  0  0
   -8.3055   -6.1150  -25.1366 C   0  0  0  0  0  0  0  0  0  0  0  0
   -9.5698   -5.6957  -24.7609 C   0  0  0  0  0  0  0  0  0  0  0  0
   -9.7155   -4.6596  -23.8420 C   0  0  0  0  0  0  0  0  0  0  0  0
  -11.0829   -4.2049  -23.4830 C   0  0  0  0  0  0  0  0  0  0  0  0
  -12.0492   -4.4092  -24.2182 O   0  0  0  0  0  0  0  0  0  0  0  0
  -10.4699   -6.1523  -25.1639 H   0  0  0  0  0  0  0  0  0  0  0  0
   -8.1753   -6.9391  -25.8302 H   0  0  0  0  0  0  0  0  0  0  0  0
   -6.4487   -3.9857  -23.2321 H   0  0  0  0  0  0  0  0  0  0  0  0
   -9.8223   -4.0689  -20.7828 H   0  0  0  0  0  0  0  0  0  0  0  0
  -10.2856   -2.3591  -20.8232 H   0  0  0  0  0  0  0  0  0  0  0  0
  -12.5220   -3.8274  -20.6532 H   0  0  0  0  0  0  0  0  0  0  0  0
  -13.0651   -4.3954  -22.2795 H   0  0  0  0  0  0  0  0  0  0  0  0
  -13.4351   -2.7766  -23.9583 H   0  0  0  0  0  0  0  0  0  0  0  0
  -15.0167   -1.2078  -24.6191 H   0  0  0  0  0  0  0  0  0  0  0  0
  -15.4365   -0.9001  -22.9181 H   0  0  0  0  0  0  0  0  0  0  0  0
  -14.0323   -0.0694  -23.6495 H   0  0  0  0  0  0  0  0  0  0  0  0
  1  2  1  0
  2  3  1  0
  3  4  2  0
  3  5  1  0
  5  6  1  0
  6  7  1  0
  8  7  1  1
  8  9  1  0
  9 10  2  0
  9 11  1  0
 11 12  1  0
 12 13  2  0
 13 14  1  0
 14 15  2  0
 15 16  1  0
 16 17  2  0
 17 18  1  0
 18 19  2  0
 19 20  1  0
 20 21  2  0
 20 22  1  0
 19 23  1  0
 18 24  1  0
 17 25  1  0
 15 26  1  0
 13 27  1  0
 11 28  1  0
 28 29  1  0
 29 30  1  0
 30 31  1  0
 30 32  1  0
 30 33  1  0
 29 34  1  0
 34 35  1  0
 34 36  1  0
 34 37  1  0
 28 38  1  0
 28 39  1  0
  8 40  1  0
 40 41  2  0
 41 42  1  0
 42 43  1  0
 42 44  2  0
 44 45  1  0
 45 46  2  0
 46 47  1  0
 47 48  2  0
 45 49  1  0
 44 50  1  0
 41 51  1  0
  7 52  1  0
  7 53  1  0
  5 54  1  0
  5 55  1  0
  2 56  1  0
  1 57  1  0
  1 58  1  0
  1 59  1  0
 47  6  1  0
 29  8  1  0
 46 40  1  0
 21 12  1  0
 21 16  1  0
M  END
>  <cnnaffinities>  (55) 
[6.37428, 6.16141, 6.03675, 6.0468]

>  <score>  (55) 
6.37428

>  <index>  (55) 
57

>  <Smiles>  (55) 
C(N(C(=O)C(N1C([C@@]2(C(=O)N(c3c(nc(c4c(c(c(c(c34)[H])[H])[H])[H])[H])[H])C(C2(C([H])([H])[H])C([H])([H])[H])([H])[H])c2c(c(Cl)c(c(c2C1=O)[H])[H])[H])([H])[H])([H])[H])[H])([H])([H])[H]

>  <h>  (55) 
<NA>

>  <Training>  (55) 
True

>  <Success>  (55) 
True

>  <enamine_searched>  (55) 
False

>  <enamine_id>  (55) 
nan

$$$$

     RDKit          3D

 42 45  0  0  0  0  0  0  0  0999 V2000
  -12.8254   -2.1536  -22.6989 C   0  0  0  0  0  0  0  0  0  0  0  0
  -11.3998   -2.4008  -22.8872 N   0  0  0  0  0  0  0  0  0  0  0  0
  -10.4129   -1.7136  -22.0850 C   0  0  0  0  0  0  0  0  0  0  0  0
   -9.2085   -1.3036  -22.9390 C   0  0  1  0  0  0  0  0  0  0  0  0
   -8.1747   -0.6017  -22.0580 C   0  0  0  0  0  0  0  0  0  0  0  0
   -8.0471    0.6067  -22.0662 O   0  0  0  0  0  0  0  0  0  0  0  0
   -7.4073   -1.3707  -21.2068 N   0  0  0  0  0  0  0  0  0  0  0  0
   -6.5903   -0.8116  -20.1847 C   0  0  0  0  0  0  0  0  0  0  0  0
   -6.8812   -1.0548  -18.8631 C   0  0  0  0  0  0  0  0  0  0  0  0
   -6.1996   -0.5444  -17.8077 N   0  0  0  0  0  0  0  0  0  0  0  0
   -5.1632    0.2219  -18.0662 C   0  0  0  0  0  0  0  0  0  0  0  0
   -4.7265    0.5291  -19.3854 C   0  0  0  0  0  0  0  0  0  0  0  0
   -3.5922    1.3532  -19.6242 C   0  0  0  0  0  0  0  0  0  0  0  0
   -3.1818    1.6142  -20.9066 C   0  0  0  0  0  0  0  0  0  0  0  0
   -3.8824    1.0571  -21.9985 C   0  0  0  0  0  0  0  0  0  0  0  0
   -4.9801    0.2580  -21.7915 C   0  0  0  0  0  0  0  0  0  0  0  0
   -5.4462   -0.0097  -20.4777 C   0  0  0  0  0  0  0  0  0  0  0  0
   -5.5097   -0.1702  -22.6334 H   0  0  0  0  0  0  0  0  0  0  0  0
   -3.5513    1.2625  -23.0111 H   0  0  0  0  0  0  0  0  0  0  0  0
   -2.3170    2.2459  -21.0953 H   0  0  0  0  0  0  0  0  0  0  0  0
   -3.0518    1.7725  -18.7784 H   0  0  0  0  0  0  0  0  0  0  0  0
   -4.6034    0.6262  -17.2182 H   0  0  0  0  0  0  0  0  0  0  0  0
   -7.7357   -1.6720  -18.5943 H   0  0  0  0  0  0  0  0  0  0  0  0
   -7.6044   -2.3573  -21.1464 H   0  0  0  0  0  0  0  0  0  0  0  0
   -8.6929   -2.4579  -23.7624 C   0  0  0  0  0  0  0  0  0  0  0  0
   -7.3838   -2.4641  -24.2505 C   0  0  0  0  0  0  0  0  0  0  0  0
   -6.9370   -3.5292  -25.0115 C   0  0  0  0  0  0  0  0  0  0  0  0
   -5.2975   -3.5319  -25.5855 Cl  0  0  0  0  0  0  0  0  0  0  0  0
   -7.7786   -4.5906  -25.3287 C   0  0  0  0  0  0  0  0  0  0  0  0
   -9.0908   -4.5548  -24.8809 C   0  0  0  0  0  0  0  0  0  0  0  0
   -9.5641   -3.4935  -24.1015 C   0  0  0  0  0  0  0  0  0  0  0  0
  -11.0221   -3.4382  -23.7080 C   0  0  0  0  0  0  0  0  0  0  0  0
  -11.8390   -4.2379  -24.1333 O   0  0  0  0  0  0  0  0  0  0  0  0
   -9.7580   -5.3619  -25.1532 H   0  0  0  0  0  0  0  0  0  0  0  0
   -7.4021   -5.4151  -25.9302 H   0  0  0  0  0  0  0  0  0  0  0  0
   -6.7121   -1.6370  -24.0438 H   0  0  0  0  0  0  0  0  0  0  0  0
   -9.5554   -0.5310  -23.6290 H   0  0  0  0  0  0  0  0  0  0  0  0
  -10.8668   -0.8200  -21.6592 H   0  0  0  0  0  0  0  0  0  0  0  0
  -10.0662   -2.3237  -21.2405 H   0  0  0  0  0  0  0  0  0  0  0  0
  -12.9780   -1.3456  -21.9824 H   0  0  0  0  0  0  0  0  0  0  0  0
  -13.3647   -3.0341  -22.3388 H   0  0  0  0  0  0  0  0  0  0  0  0
  -13.2909   -1.8462  -23.6370 H   0  0  0  0  0  0  0  0  0  0  0  0
  1  2  1  0
  2  3  1  0
  3  4  1  0
  4  5  1  0
  5  6  2  0
  5  7  1  0
  7  8  1  0
  8  9  2  0
  9 10  1  0
 10 11  2  0
 11 12  1  0
 12 13  2  0
 13 14  1  0
 14 15  2  0
 15 16  1  0
 16 17  2  0
 16 18  1  0
 15 19  1  0
 14 20  1  0
 13 21  1  0
 11 22  1  0
  9 23  1  0
  7 24  1  0
  4 25  1  0
 25 26  2  0
 26 27  1  0
 27 28  1  0
 27 29  2  0
 29 30  1  0
 30 31  2  0
 31 32  1  0
 32 33  2  0
 30 34  1  0
 29 35  1  0
 26 36  1  0
  4 37  1  6
  3 38  1  0
  3 39  1  0
  1 40  1  0
  1 41  1  0
  1 42  1  0
 32  2  1  0
 17  8  1  0
 31 25  1  0
 17 12  1  0
M  END
>  <cnnaffinities>  (56) 
[5.50472]

>  <score>  (56) 
5.50472

>  <index>  (56) 
58

>  <Smiles>  (56) 
C(N1C([C@@](C(=O)N(c2c(nc(c3c(c(c(c(c23)[H])[H])[H])[H])[H])[H])[H])(c2c(c(Cl)c(c(c2C1=O)[H])[H])[H])[H])([H])[H])([H])([H])[H]

>  <h>  (56) 
<NA>

>  <Training>  (56) 
True

>  <Success>  (56) 
True

>  <enamine_searched>  (56) 
False

>  <enamine_id>  (56) 
nan

$$$$

     RDKit          3D

 60 65  0  0  0  0  0  0  0  0999 V2000
   -7.0158    3.0862  -22.8513 C   0  0  0  0  0  0  0  0  0  0  0  0
   -8.1187    2.2880  -23.3428 N   0  0  0  0  0  0  0  0  0  0  0  0
   -8.0670    1.6334  -24.5291 C   0  0  0  0  0  0  0  0  0  0  0  0
   -7.0240    1.3752  -25.1046 O   0  0  0  0  0  0  0  0  0  0  0  0
   -9.4434    1.1885  -25.0378 C   0  0  0  0  0  0  0  0  0  0  0  0
  -10.0242    0.1908  -24.1638 N   0  0  0  0  0  0  0  0  0  0  0  0
   -9.3600   -1.0973  -24.0551 C   0  0  0  0  0  0  0  0  0  0  0  0
   -9.5830   -1.7241  -22.6578 C   0  0  2  0  0  0  0  0  0  0  0  0
   -8.9943   -0.7764  -21.5712 C   0  0  0  0  0  0  0  0  0  0  0  0
   -9.4994    0.2205  -21.0996 O   0  0  0  0  0  0  0  0  0  0  0  0
   -7.7542   -1.2572  -21.2179 N   0  0  0  0  0  0  0  0  0  0  0  0
   -6.9675   -0.7007  -20.1841 C   0  0  0  0  0  0  0  0  0  0  0  0
   -7.2534   -0.9970  -18.8742 C   0  0  0  0  0  0  0  0  0  0  0  0
   -6.4970   -0.6079  -17.8177 N   0  0  0  0  0  0  0  0  0  0  0  0
   -5.4184    0.0876  -18.0878 C   0  0  0  0  0  0  0  0  0  0  0  0
   -4.9995    0.4563  -19.3974 C   0  0  0  0  0  0  0  0  0  0  0  0
   -3.8072    1.1936  -19.6257 C   0  0  0  0  0  0  0  0  0  0  0  0
   -3.4204    1.5070  -20.8982 C   0  0  0  0  0  0  0  0  0  0  0  0
   -4.2006    1.1001  -22.0052 C   0  0  0  0  0  0  0  0  0  0  0  0
   -5.3598    0.3873  -21.8078 C   0  0  0  0  0  0  0  0  0  0  0  0
   -5.7912    0.0471  -20.4963 C   0  0  0  0  0  0  0  0  0  0  0  0
   -5.9587    0.0943  -22.6673 H   0  0  0  0  0  0  0  0  0  0  0  0
   -3.8904    1.3633  -23.0149 H   0  0  0  0  0  0  0  0  0  0  0  0
   -2.5133    2.0780  -21.0671 H   0  0  0  0  0  0  0  0  0  0  0  0
   -3.2209    1.4997  -18.7613 H   0  0  0  0  0  0  0  0  0  0  0  0
   -4.8029    0.3938  -17.2424 H   0  0  0  0  0  0  0  0  0  0  0  0
   -8.1288   -1.6010  -18.6440 H   0  0  0  0  0  0  0  0  0  0  0  0
   -7.3692   -2.4616  -21.9157 C   0  0  0  0  0  0  0  0  0  0  0  0
   -8.7174   -2.9956  -22.4189 C   0  0  2  0  0  0  0  0  0  0  0  0
   -8.5556   -4.0761  -23.5066 C   0  0  0  0  0  0  0  0  0  0  0  0
   -7.6387   -3.7571  -24.6586 C   0  0  0  0  0  0  0  0  0  0  0  0
   -8.0324   -3.4284  -25.8828 N   0  0  0  0  0  0  0  0  0  0  0  0
   -6.9093   -3.1989  -26.5631 N   0  0  0  0  0  0  0  0  0  0  0  0
   -5.8837   -3.4041  -25.7838 N   0  0  0  0  0  2  0  0  0  0  0  0
   -6.3130   -3.7686  -24.5764 N   0  0  0  0  0  0  0  0  0  0  0  0
   -8.1298   -4.9628  -23.0263 H   0  0  0  0  0  0  0  0  0  0  0  0
   -9.5322   -4.3539  -23.9056 H   0  0  0  0  0  0  0  0  0  0  0  0
   -9.1812   -3.4939  -21.5619 H   0  0  0  0  0  0  0  0  0  0  0  0
   -6.6931   -2.2310  -22.7501 H   0  0  0  0  0  0  0  0  0  0  0  0
   -6.8594   -3.1603  -21.2422 H   0  0  0  0  0  0  0  0  0  0  0  0
  -11.0887   -1.8456  -22.4893 C   0  0  0  0  0  0  0  0  0  0  0  0
  -11.7145   -2.8749  -21.7705 C   0  0  0  0  0  0  0  0  0  0  0  0
  -13.0773   -2.8004  -21.5134 C   0  0  0  0  0  0  0  0  0  0  0  0
  -13.8640   -3.9869  -20.5158 Cl  0  0  0  0  0  0  0  0  0  0  0  0
  -13.8644   -1.7457  -21.9814 C   0  0  0  0  0  0  0  0  0  0  0  0
  -13.2534   -0.7432  -22.7020 C   0  0  0  0  0  0  0  0  0  0  0  0
  -11.8901   -0.7948  -22.9697 C   0  0  0  0  0  0  0  0  0  0  0  0
  -11.3293    0.3284  -23.7902 C   0  0  0  0  0  0  0  0  0  0  0  0
  -12.0050    1.3087  -24.0821 O   0  0  0  0  0  0  0  0  0  0  0  0
  -13.8041    0.1210  -23.0593 H   0  0  0  0  0  0  0  0  0  0  0  0
  -14.9185   -1.6929  -21.7236 H   0  0  0  0  0  0  0  0  0  0  0  0
  -11.1255   -3.6858  -21.3491 H   0  0  0  0  0  0  0  0  0  0  0  0
   -9.7508   -1.7867  -24.8110 H   0  0  0  0  0  0  0  0  0  0  0  0
   -8.2944   -0.9647  -24.2524 H   0  0  0  0  0  0  0  0  0  0  0  0
   -9.3797    0.8214  -26.0679 H   0  0  0  0  0  0  0  0  0  0  0  0
  -10.1411    2.0299  -25.0273 H   0  0  0  0  0  0  0  0  0  0  0  0
   -9.0205    2.3915  -22.9083 H   0  0  0  0  0  0  0  0  0  0  0  0
   -6.1583    2.8923  -23.5011 H   0  0  0  0  0  0  0  0  0  0  0  0
   -7.2840    4.1469  -22.8964 H   0  0  0  0  0  0  0  0  0  0  0  0
   -6.7558    2.8221  -21.8184 H   0  0  0  0  0  0  0  0  0  0  0  0
  1  2  1  0
  2  3  1  0
  3  4  2  0
  3  5  1  0
  5  6  1  0
  6  7  1  0
  8  7  1  6
  8  9  1  0
  9 10  2  0
  9 11  1  0
 11 12  1  0
 12 13  2  0
 13 14  1  0
 14 15  2  0
 15 16  1  0
 16 17  2  0
 17 18  1  0
 18 19  2  0
 19 20  1  0
 20 21  2  0
 20 22  1  0
 19 23  1  0
 18 24  1  0
 17 25  1  0
 15 26  1  0
 13 27  1  0
 11 28  1  0
 28 29  1  0
 29 30  1  0
 30 31  1  0
 31 32  1  0
 32 33  2  0
 33 34  1  0
 34 35  1  0
 30 36  1  0
 30 37  1  0
 29 38  1  1
 28 39  1  0
 28 40  1  0
  8 41  1  0
 41 42  2  0
 42 43  1  0
 43 44  1  0
 43 45  2  0
 45 46  1  0
 46 47  2  0
 47 48  1  0
 48 49  2  0
 46 50  1  0
 45 51  1  0
 42 52  1  0
  7 53  1  0
  7 54  1  0
  5 55  1  0
  5 56  1  0
  2 57  1  0
  1 58  1  0
  1 59  1  0
  1 60  1  0
 48  6  1  0
 29  8  1  0
 35 31  2  0
 47 41  1  0
 21 12  1  0
 21 16  1  0
M  CHG  1  34  -1
M  END
>  <cnnaffinities>  (57) 
[6.91249, 6.89277, 6.83073, 6.8152]

>  <score>  (57) 
6.91249

>  <index>  (57) 
59

>  <Smiles>  (57) 
C(N(C(=O)C(N1C([C@@]2(C(=O)N(c3c(nc(c4c(c(c(c(c34)[H])[H])[H])[H])[H])[H])C([C@@]2(C(c2nn[n-]n2)([H])[H])[H])([H])[H])c2c(c(Cl)c(c(c2C1=O)[H])[H])[H])([H])[H])([H])[H])[H])([H])([H])[H]

>  <h>  (57) 
<NA>

>  <Training>  (57) 
True

>  <Success>  (57) 
True

>  <enamine_searched>  (57) 
False

>  <enamine_id>  (57) 
nan

$$$$

     RDKit          3D

 62 67  0  0  0  0  0  0  0  0999 V2000
  -11.5677    2.3867  -21.9901 C   0  0  0  0  0  0  0  0  0  0  0  0
  -11.8816    2.3227  -21.9516 C   0  0  0  0  0  0  0  0  0  0  0  0
  -11.9822    2.7312  -23.3469 N   0  0  0  0  0  0  0  0  0  0  0  0
  -12.8781    3.6697  -23.6057 N   0  0  0  0  0  0  0  0  0  0  0  0
  -12.7022    3.9871  -24.8909 C   0  0  0  0  0  0  0  0  0  0  0  0
  -11.6313    3.2609  -25.4361 C   0  0  0  0  0  0  0  0  0  0  0  0
  -11.2238    2.4166  -24.4243 C   0  0  0  0  0  0  0  0  0  0  0  0
  -10.1393    1.3679  -24.4318 C   0  0  0  0  0  0  0  0  0  0  0  0
  -10.5532   -0.0360  -24.2627 N   0  0  0  0  0  0  0  0  0  0  0  0
   -9.5092   -1.0411  -24.0542 C   0  0  0  0  0  0  0  0  0  0  0  0
   -9.6392   -1.8064  -22.6995 C   0  0  2  0  0  0  0  0  0  0  0  0
   -9.0538   -0.9053  -21.5741 C   0  0  0  0  0  0  0  0  0  0  0  0
   -9.5957    0.0145  -20.9915 O   0  0  0  0  0  0  0  0  0  0  0  0
   -7.7516   -1.2808  -21.3416 N   0  0  0  0  0  0  0  0  0  0  0  0
   -7.0029   -0.7572  -20.2603 C   0  0  0  0  0  0  0  0  0  0  0  0
   -7.3774   -0.9805  -18.9599 C   0  0  0  0  0  0  0  0  0  0  0  0
   -6.6547   -0.5829  -17.8812 N   0  0  0  0  0  0  0  0  0  0  0  0
   -5.5417    0.0771  -18.1057 C   0  0  0  0  0  0  0  0  0  0  0  0
   -5.0514    0.4018  -19.4044 C   0  0  0  0  0  0  0  0  0  0  0  0
   -3.8653    1.1549  -19.6216 C   0  0  0  0  0  0  0  0  0  0  0  0
   -3.4441    1.4313  -20.8943 C   0  0  0  0  0  0  0  0  0  0  0  0
   -4.1860    0.9830  -22.0102 C   0  0  0  0  0  0  0  0  0  0  0  0
   -5.3442    0.2716  -21.8269 C   0  0  0  0  0  0  0  0  0  0  0  0
   -5.7974   -0.0375  -20.5191 C   0  0  0  0  0  0  0  0  0  0  0  0
   -5.9383   -0.0447  -22.6789 H   0  0  0  0  0  0  0  0  0  0  0  0
   -3.8500    1.2136  -23.0163 H   0  0  0  0  0  0  0  0  0  0  0  0
   -2.5416    2.0133  -21.0608 H   0  0  0  0  0  0  0  0  0  0  0  0
   -3.3111    1.5222  -18.7621 H   0  0  0  0  0  0  0  0  0  0  0  0
   -4.9685    0.3870  -17.2303 H   0  0  0  0  0  0  0  0  0  0  0  0
   -8.2977   -1.5172  -18.7405 H   0  0  0  0  0  0  0  0  0  0  0  0
   -7.3309   -2.4404  -22.1054 C   0  0  0  0  0  0  0  0  0  0  0  0
   -8.6720   -3.0216  -22.5799 C   0  0  2  0  0  0  0  0  0  0  0  0
   -8.6042   -3.9632  -23.7742 C   0  0  0  0  0  0  0  0  0  0  0  0
   -8.2136   -3.4579  -24.6636 H   0  0  0  0  0  0  0  0  0  0  0  0
   -7.9502   -4.8214  -23.5714 H   0  0  0  0  0  0  0  0  0  0  0  0
   -9.6041   -4.3489  -24.0103 H   0  0  0  0  0  0  0  0  0  0  0  0
   -9.0382   -3.5918  -21.7240 H   0  0  0  0  0  0  0  0  0  0  0  0
   -6.6766   -2.1759  -22.9499 H   0  0  0  0  0  0  0  0  0  0  0  0
   -6.7758   -3.1308  -21.4575 H   0  0  0  0  0  0  0  0  0  0  0  0
  -11.1034   -2.1706  -22.4792 C   0  0  0  0  0  0  0  0  0  0  0  0
  -11.5062   -3.1362  -21.5489 C   0  0  0  0  0  0  0  0  0  0  0  0
  -12.8389   -3.2498  -21.1938 C   0  0  0  0  0  0  0  0  0  0  0  0
  -13.1953   -4.0865  -20.2041 F   0  0  0  0  0  0  0  0  0  0  0  0
  -13.8499   -2.5196  -21.7961 C   0  0  0  0  0  0  0  0  0  0  0  0
  -13.4777   -1.6455  -22.7916 C   0  0  0  0  0  0  0  0  0  0  0  0
  -12.1319   -1.4791  -23.1204 C   0  0  0  0  0  0  0  0  0  0  0  0
  -11.8659   -0.3820  -24.0802 C   0  0  0  0  0  0  0  0  0  0  0  0
  -12.8225    0.2344  -24.5295 O   0  0  0  0  0  0  0  0  0  0  0  0
  -14.2087   -1.0664  -23.3435 H   0  0  0  0  0  0  0  0  0  0  0  0
  -14.8753   -2.6695  -21.4817 H   0  0  0  0  0  0  0  0  0  0  0  0
  -10.8017   -3.8059  -21.0721 H   0  0  0  0  0  0  0  0  0  0  0  0
   -8.5376   -0.5409  -24.1127 H   0  0  0  0  0  0  0  0  0  0  0  0
   -9.5544   -1.7642  -24.8793 H   0  0  0  0  0  0  0  0  0  0  0  0
   -9.5723    1.4740  -25.3645 H   0  0  0  0  0  0  0  0  0  0  0  0
   -9.4318    1.6111  -23.6172 H   0  0  0  0  0  0  0  0  0  0  0  0
  -11.1365    3.4005  -26.3930 H   0  0  0  0  0  0  0  0  0  0  0  0
  -13.3262    4.7470  -25.3531 H   0  0  0  0  0  0  0  0  0  0  0  0
  -11.4928    1.1965  -22.2166 H   0  0  0  0  0  0  0  0  0  0  0  0
  -13.3655    1.9596  -21.5125 H   0  0  0  0  0  0  0  0  0  0  0  0
  -11.8864    3.4836  -21.5769 H   0  0  0  0  0  0  0  0  0  0  0  0
  -10.0135    2.6622  -22.0711 H   0  0  0  0  0  0  0  0  0  0  0  0
  -11.4546    2.0830  -20.7619 H   0  0  0  0  0  0  0  0  0  0  0  0
  1  2  1  0
  2  3  1  0
  3  4  1  0
  4  5  2  0
  5  6  1  0
  6  7  2  0
  7  8  1  0
  8  9  1  0
  9 10  1  0
 11 10  1  6
 11 12  1  0
 12 13  2  0
 12 14  1  0
 14 15  1  0
 15 16  2  0
 16 17  1  0
 17 18  2  0
 18 19  1  0
 19 20  2  0
 20 21  1  0
 21 22  2  0
 22 23  1  0
 23 24  2  0
 23 25  1  0
 22 26  1  0
 21 27  1  0
 20 28  1  0
 18 29  1  0
 16 30  1  0
 14 31  1  0
 31 32  1  0
 32 33  1  0
 33 34  1  0
 33 35  1  0
 33 36  1  0
 32 37  1  1
 31 38  1  0
 31 39  1  0
 11 40  1  0
 40 41  2  0
 41 42  1  0
 42 43  1  0
 42 44  2  0
 44 45  1  0
 45 46  2  0
 46 47  1  0
 47 48  2  0
 45 49  1  0
 44 50  1  0
 41 51  1  0
 10 52  1  0
 10 53  1  0
  8 54  1  0
  8 55  1  0
  6 56  1  0
  5 57  1  0
  2 58  1  0
  2 59  1  0
  1 60  1  0
  1 61  1  0
  1 62  1  0
  7  3  1  0
 47  9  1  0
 32 11  1  0
 46 40  1  0
 24 15  1  0
 24 19  1  0
M  END
>  <cnnaffinities>  (58) 
[6.84488]

>  <score>  (58) 
6.84488

>  <index>  (58) 
60

>  <Smiles>  (58) 
C(C(n1nc(c(c1C(N1C([C@@]2(C(=O)N(c3c(nc(c4c(c(c(c(c34)[H])[H])[H])[H])[H])[H])C([C@@]2(C([H])([H])[H])[H])([H])[H])c2c(c(F)c(c(c2C1=O)[H])[H])[H])([H])[H])([H])[H])[H])[H])([H])[H])([H])([H])[H]

>  <h>  (58) 
<NA>

>  <Training>  (58) 
True

>  <Success>  (58) 
True

>  <enamine_searched>  (58) 
False

>  <enamine_id>  (58) 
nan

$$$$

     RDKit          3D

 44 47  0  0  0  0  0  0  0  0999 V2000
   -9.1587    0.2434  -21.0736 O   0  0  0  0  0  0  0  0  0  0  0  0
   -8.3727   -0.3146  -21.8114 C   0  0  0  0  0  0  0  0  0  0  0  0
   -7.4418   -1.4119  -21.2706 C   0  0  0  0  0  0  0  0  0  0  0  0
   -6.5708   -0.8347  -20.1726 C   0  0  0  0  0  0  0  0  0  0  0  0
   -6.8774   -1.0417  -18.8538 C   0  0  0  0  0  0  0  0  0  0  0  0
   -6.1958   -0.5353  -17.7890 N   0  0  0  0  0  0  0  0  0  0  0  0
   -5.1577    0.2201  -18.0618 C   0  0  0  0  0  0  0  0  0  0  0  0
   -4.7233    0.5340  -19.3778 C   0  0  0  0  0  0  0  0  0  0  0  0
   -3.6020    1.3688  -19.6214 C   0  0  0  0  0  0  0  0  0  0  0  0
   -3.2131    1.6628  -20.9001 C   0  0  0  0  0  0  0  0  0  0  0  0
   -3.9325    1.1289  -21.9935 C   0  0  0  0  0  0  0  0  0  0  0  0
   -5.0200    0.3168  -21.7845 C   0  0  0  0  0  0  0  0  0  0  0  0
   -5.4495   -0.0025  -20.4695 C   0  0  0  0  0  0  0  0  0  0  0  0
   -5.5528   -0.0879  -22.6382 H   0  0  0  0  0  0  0  0  0  0  0  0
   -3.6161    1.3671  -23.0055 H   0  0  0  0  0  0  0  0  0  0  0  0
   -2.3591    2.3100  -21.0846 H   0  0  0  0  0  0  0  0  0  0  0  0
   -3.0624    1.7802  -18.7715 H   0  0  0  0  0  0  0  0  0  0  0  0
   -4.6023    0.6270  -17.2145 H   0  0  0  0  0  0  0  0  0  0  0  0
   -7.7301   -1.6620  -18.5833 H   0  0  0  0  0  0  0  0  0  0  0  0
   -6.8311   -1.8524  -22.0686 H   0  0  0  0  0  0  0  0  0  0  0  0
   -8.0714   -2.2027  -20.8453 H   0  0  0  0  0  0  0  0  0  0  0  0
   -8.1983    0.0596  -23.1440 N   0  0  0  0  0  0  0  0  0  0  0  0
   -8.2937   -0.8796  -24.2561 C   0  0  0  0  0  0  0  0  0  0  0  0
   -7.2941   -0.5154  -25.3456 C   0  0  0  0  0  0  0  0  0  0  0  0
   -7.4438    0.9371  -25.7869 C   0  0  0  0  0  0  0  0  0  0  0  0
   -8.6469    1.2002  -26.7326 C   0  0  0  0  0  0  0  0  0  0  0  0
   -7.6869    1.5964  -27.8743 C   0  0  0  0  0  0  0  0  0  0  0  0
   -6.4876    1.3376  -26.9349 C   0  0  0  0  0  0  0  0  0  0  0  0
   -5.8725    2.2150  -26.7206 H   0  0  0  0  0  0  0  0  0  0  0  0
   -5.8131    0.5392  -27.2555 H   0  0  0  0  0  0  0  0  0  0  0  0
   -7.7878    2.6289  -28.2193 H   0  0  0  0  0  0  0  0  0  0  0  0
   -7.7297    0.9474  -28.7541 H   0  0  0  0  0  0  0  0  0  0  0  0
   -9.3277    1.9882  -26.3985 H   0  0  0  0  0  0  0  0  0  0  0  0
   -9.2433    0.3122  -26.9362 H   0  0  0  0  0  0  0  0  0  0  0  0
   -7.3902    1.8635  -24.5778 C   0  0  0  0  0  0  0  0  0  0  0  0
   -8.3977    1.4600  -23.5015 C   0  0  0  0  0  0  0  0  0  0  0  0
   -9.4252    1.6599  -23.8460 H   0  0  0  0  0  0  0  0  0  0  0  0
   -8.2534    2.0568  -22.5999 H   0  0  0  0  0  0  0  0  0  0  0  0
   -7.5771    2.8922  -24.9004 H   0  0  0  0  0  0  0  0  0  0  0  0
   -6.3761    1.8576  -24.1544 H   0  0  0  0  0  0  0  0  0  0  0  0
   -7.4221   -1.1778  -26.2085 H   0  0  0  0  0  0  0  0  0  0  0  0
   -6.2752   -0.6828  -24.9743 H   0  0  0  0  0  0  0  0  0  0  0  0
   -8.1174   -1.8879  -23.8818 H   0  0  0  0  0  0  0  0  0  0  0  0
   -9.3116   -0.8851  -24.6880 H   0  0  0  0  0  0  0  0  0  0  0  0
  1  2  2  0
  2  3  1  0
  3  4  1  0
  4  5  2  0
  5  6  1  0
  6  7  2  0
  7  8  1  0
  8  9  2  0
  9 10  1  0
 10 11  2  0
 11 12  1  0
 12 13  2  0
 12 14  1  0
 11 15  1  0
 10 16  1  0
  9 17  1  0
  7 18  1  0
  5 19  1  0
  3 20  1  0
  3 21  1  0
  2 22  1  0
 22 23  1  0
 23 24  1  0
 24 25  1  0
 25 26  1  0
 26 27  1  0
 27 28  1  0
 28 29  1  0
 28 30  1  0
 27 31  1  0
 27 32  1  0
 26 33  1  0
 26 34  1  0
 25 35  1  0
 35 36  1  0
 36 37  1  0
 36 38  1  0
 35 39  1  0
 35 40  1  0
 24 41  1  0
 24 42  1  0
 23 43  1  0
 23 44  1  0
 13  4  1  0
 36 22  1  0
 13  8  1  0
 28 25  1  0
M  END
>  <cnnaffinities>  (59) 
[4.90438, 4.9042, 4.90421, 4.90283, 5.16196, 5.16198, 5.16238, 5.16196, 5.28119, 5.28119, 5.28121, 5.28119, 5.10988, 5.1098]

>  <score>  (59) 
4.90438

>  <index>  (59) 
61

>  <Smiles>  (59) 
O=C(C(c1c(nc(c2c(c(c(c(c12)[H])[H])[H])[H])[H])[H])([H])[H])N1C(C(C2(C(C(C2([H])[H])([H])[H])([H])[H])C(C1([H])[H])([H])[H])([H])[H])([H])[H]

>  <h>  (59) 
<NA>

>  <Training>  (59) 
True

>  <Success>  (59) 
True

>  <enamine_searched>  (59) 
False

>  <enamine_id>  (59) 
nan

$$$$

     RDKit          3D

 44 47  0  0  0  0  0  0  0  0999 V2000
   -5.6190   -3.1240  -21.3491 O   0  0  0  0  0  0  0  0  0  0  0  0
   -6.7704   -2.8713  -21.6751 C   0  0  0  0  0  0  0  0  0  0  0  0
   -7.4002   -1.5357  -21.2673 C   0  0  0  0  0  0  0  0  0  0  0  0
   -6.6000   -0.8624  -20.1868 C   0  0  0  0  0  0  0  0  0  0  0  0
   -6.9228   -1.0750  -18.8714 C   0  0  0  0  0  0  0  0  0  0  0  0
   -6.2604   -0.5654  -17.7972 N   0  0  0  0  0  0  0  0  0  0  0  0
   -5.2153    0.1864  -18.0627 C   0  0  0  0  0  0  0  0  0  0  0  0
   -4.7562    0.4861  -19.3750 C   0  0  0  0  0  0  0  0  0  0  0  0
   -3.6340    1.3227  -19.6055 C   0  0  0  0  0  0  0  0  0  0  0  0
   -3.2295    1.6035  -20.8830 C   0  0  0  0  0  0  0  0  0  0  0  0
   -3.9199    1.0542  -21.9839 C   0  0  0  0  0  0  0  0  0  0  0  0
   -5.0015    0.2318  -21.7886 C   0  0  0  0  0  0  0  0  0  0  0  0
   -5.4575   -0.0615  -20.4744 C   0  0  0  0  0  0  0  0  0  0  0  0
   -5.5117   -0.1927  -22.6469 H   0  0  0  0  0  0  0  0  0  0  0  0
   -3.5950    1.2962  -22.9921 H   0  0  0  0  0  0  0  0  0  0  0  0
   -2.3773    2.2524  -21.0595 H   0  0  0  0  0  0  0  0  0  0  0  0
   -3.1098    1.7453  -18.7523 H   0  0  0  0  0  0  0  0  0  0  0  0
   -4.6662    0.6077  -17.2189 H   0  0  0  0  0  0  0  0  0  0  0  0
   -7.7841   -1.6992  -18.6314 H   0  0  0  0  0  0  0  0  0  0  0  0
   -7.5049   -0.9037  -22.1604 H   0  0  0  0  0  0  0  0  0  0  0  0
   -8.4072   -1.7470  -20.8858 H   0  0  0  0  0  0  0  0  0  0  0  0
   -7.5427   -3.7613  -22.3908 N   0  0  0  0  0  0  0  0  0  0  0  0
   -7.1347   -5.1670  -22.3237 C   0  0  0  0  0  0  0  0  0  0  0  0
   -7.3394   -5.9034  -23.6473 C   0  0  0  0  0  0  0  0  0  0  0  0
   -8.8054   -5.7508  -24.1112 C   0  0  0  0  0  0  0  0  0  0  0  0
   -9.1108   -6.5524  -25.3803 C   0  0  0  0  0  0  0  0  0  0  0  0
   -9.6143   -7.9753  -25.3116 C   0  0  0  0  0  0  0  0  0  0  0  0
  -10.5131   -6.8855  -25.8294 C   0  0  0  0  0  0  0  0  0  0  0  0
  -11.3694   -6.5813  -25.2317 H   0  0  0  0  0  0  0  0  0  0  0  0
  -10.6867   -6.8559  -26.9006 H   0  0  0  0  0  0  0  0  0  0  0  0
   -9.2405   -8.6915  -26.0348 H   0  0  0  0  0  0  0  0  0  0  0  0
   -9.8389   -8.4335  -24.3503 H   0  0  0  0  0  0  0  0  0  0  0  0
   -8.4245   -6.3826  -26.2147 H   0  0  0  0  0  0  0  0  0  0  0  0
   -9.1952   -4.2520  -24.1651 C   0  0  0  0  0  0  0  0  0  0  0  0
   -8.9324   -3.5408  -22.8238 C   0  0  0  0  0  0  0  0  0  0  0  0
   -9.1271   -2.4680  -22.9467 H   0  0  0  0  0  0  0  0  0  0  0  0
   -9.6557   -3.8942  -22.0626 H   0  0  0  0  0  0  0  0  0  0  0  0
   -8.6389   -3.7176  -24.9475 H   0  0  0  0  0  0  0  0  0  0  0  0
  -10.2631   -4.1513  -24.4086 H   0  0  0  0  0  0  0  0  0  0  0  0
   -9.4197   -6.1778  -23.3064 H   0  0  0  0  0  0  0  0  0  0  0  0
   -6.6302   -5.5316  -24.4021 H   0  0  0  0  0  0  0  0  0  0  0  0
   -7.0898   -6.9615  -23.4771 H   0  0  0  0  0  0  0  0  0  0  0  0
   -7.7241   -5.6755  -21.5400 H   0  0  0  0  0  0  0  0  0  0  0  0
   -6.0885   -5.1862  -22.0116 H   0  0  0  0  0  0  0  0  0  0  0  0
  1  2  2  0
  2  3  1  0
  3  4  1  0
  4  5  2  0
  5  6  1  0
  6  7  2  0
  7  8  1  0
  8  9  2  0
  9 10  1  0
 10 11  2  0
 11 12  1  0
 12 13  2  0
 12 14  1  0
 11 15  1  0
 10 16  1  0
  9 17  1  0
  7 18  1  0
  5 19  1  0
  3 20  1  0
  3 21  1  0
  2 22  1  0
 22 23  1  0
 23 24  1  0
 24 25  1  0
 25 26  1  0
 26 27  1  0
 27 28  1  0
 28 29  1  0
 28 30  1  0
 27 31  1  0
 27 32  1  0
 26 33  1  0
 25 34  1  0
 34 35  1  0
 35 36  1  0
 35 37  1  0
 34 38  1  0
 34 39  1  0
 25 40  1  0
 24 41  1  0
 24 42  1  0
 23 43  1  0
 23 44  1  0
 13  4  1  0
 35 22  1  0
 13  8  1  0
 28 26  1  0
M  END
>  <cnnaffinities>  (60) 
[5.21571, 5.00304, 4.77328, 5.13501, 5.14929, 4.77, 5.08282]

>  <score>  (60) 
5.21571

>  <index>  (60) 
62

>  <Smiles>  (60) 
O=C(C(c1c(nc(c2c(c(c(c(c12)[H])[H])[H])[H])[H])[H])([H])[H])N1C(C(C(C2(C(C2([H])[H])([H])[H])[H])(C(C1([H])[H])([H])[H])[H])([H])[H])([H])[H]

>  <h>  (60) 
<NA>

>  <Training>  (60) 
True

>  <Success>  (60) 
True

>  <enamine_searched>  (60) 
False

>  <enamine_id>  (60) 
nan

$$$$

     RDKit          3D

 57 61  0  0  0  0  0  0  0  0999 V2000
   -7.3324    3.4294  -21.8687 C   0  0  0  0  0  0  0  0  0  0  0  0
   -8.1751    2.9550  -22.9498 N   0  0  0  0  0  0  0  0  0  0  0  0
   -7.5956    2.2485  -23.9500 C   0  0  0  0  0  0  0  0  0  0  0  0
   -6.3795    2.1269  -24.0447 O   0  0  0  0  0  0  0  0  0  0  0  0
   -8.5433    1.6226  -24.9792 C   0  0  0  0  0  0  0  0  0  0  0  0
   -9.2836    0.4793  -24.4767 N   0  0  0  0  0  0  0  0  0  0  0  0
   -8.5908   -0.7801  -24.2892 C   0  0  0  0  0  0  0  0  0  0  0  0
   -9.0100   -1.4744  -22.9652 C   0  0  2  0  0  0  0  0  0  0  0  0
   -8.4619   -0.6828  -21.7477 C   0  0  0  0  0  0  0  0  0  0  0  0
   -8.8693    0.3765  -21.3102 O   0  0  0  0  0  0  0  0  0  0  0  0
   -7.4065   -1.3790  -21.2031 N   0  0  0  0  0  0  0  0  0  0  0  0
   -6.6069   -0.8069  -20.1754 C   0  0  0  0  0  0  0  0  0  0  0  0
   -6.9106   -1.0426  -18.8591 C   0  0  0  0  0  0  0  0  0  0  0  0
   -6.2098   -0.5509  -17.8061 N   0  0  0  0  0  0  0  0  0  0  0  0
   -5.1708    0.2066  -18.0743 C   0  0  0  0  0  0  0  0  0  0  0  0
   -4.7334    0.5311  -19.3907 C   0  0  0  0  0  0  0  0  0  0  0  0
   -3.6045    1.3626  -19.6361 C   0  0  0  0  0  0  0  0  0  0  0  0
   -3.2145    1.6504  -20.9166 C   0  0  0  0  0  0  0  0  0  0  0  0
   -3.9338    1.1181  -22.0115 C   0  0  0  0  0  0  0  0  0  0  0  0
   -5.0291    0.3139  -21.7987 C   0  0  0  0  0  0  0  0  0  0  0  0
   -5.4669    0.0048  -20.4820 C   0  0  0  0  0  0  0  0  0  0  0  0
   -5.5801   -0.0777  -22.6488 H   0  0  0  0  0  0  0  0  0  0  0  0
   -3.6401    1.3602  -23.0266 H   0  0  0  0  0  0  0  0  0  0  0  0
   -2.3615    2.2979  -21.0973 H   0  0  0  0  0  0  0  0  0  0  0  0
   -3.0720    1.7740  -18.7828 H   0  0  0  0  0  0  0  0  0  0  0  0
   -4.6228    0.6104  -17.2234 H   0  0  0  0  0  0  0  0  0  0  0  0
   -7.7605   -1.6703  -18.6038 H   0  0  0  0  0  0  0  0  0  0  0  0
   -7.0812   -2.6120  -21.8961 C   0  0  0  0  0  0  0  0  0  0  0  0
   -8.3126   -2.8596  -22.7986 C   0  0  2  0  0  0  0  0  0  0  0  0
   -7.9426   -3.6165  -24.0856 C   0  0  0  0  0  0  0  0  0  0  0  0
   -7.3992   -4.8955  -23.8140 O   0  0  0  0  0  0  0  0  0  0  0  0
   -8.1225   -5.4900  -23.5665 H   0  0  0  0  0  0  0  0  0  0  0  0
   -7.1541   -3.0735  -24.6257 H   0  0  0  0  0  0  0  0  0  0  0  0
   -8.8108   -3.6934  -24.7605 H   0  0  0  0  0  0  0  0  0  0  0  0
   -9.0127   -3.4982  -22.2512 H   0  0  0  0  0  0  0  0  0  0  0  0
   -6.9129   -3.4261  -21.1816 H   0  0  0  0  0  0  0  0  0  0  0  0
   -6.1554   -2.5037  -22.4852 H   0  0  0  0  0  0  0  0  0  0  0  0
  -10.5283   -1.4905  -22.8972 C   0  0  0  0  0  0  0  0  0  0  0  0
  -11.1818   -2.3353  -21.9908 C   0  0  0  0  0  0  0  0  0  0  0  0
  -12.5616   -2.3300  -21.9098 C   0  0  0  0  0  0  0  0  0  0  0  0
  -13.3639   -3.3783  -20.7763 Cl  0  0  0  0  0  0  0  0  0  0  0  0
  -13.3326   -1.4768  -22.6981 C   0  0  0  0  0  0  0  0  0  0  0  0
  -12.6908   -0.5849  -23.5345 C   0  0  0  0  0  0  0  0  0  0  0  0
  -11.2974   -0.5571  -23.6066 C   0  0  0  0  0  0  0  0  0  0  0  0
  -10.6431    0.5734  -24.3464 C   0  0  0  0  0  0  0  0  0  0  0  0
  -11.2752    1.5342  -24.7618 O   0  0  0  0  0  0  0  0  0  0  0  0
  -13.2448    0.1372  -24.1223 H   0  0  0  0  0  0  0  0  0  0  0  0
  -14.4131   -1.4959  -22.6103 H   0  0  0  0  0  0  0  0  0  0  0  0
  -10.6256   -2.9732  -21.3122 H   0  0  0  0  0  0  0  0  0  0  0  0
   -7.5200   -0.5505  -24.2591 H   0  0  0  0  0  0  0  0  0  0  0  0
   -8.7904   -1.4594  -25.1351 H   0  0  0  0  0  0  0  0  0  0  0  0
   -7.9061    1.3386  -25.8226 H   0  0  0  0  0  0  0  0  0  0  0  0
   -9.3087    2.3259  -25.3223 H   0  0  0  0  0  0  0  0  0  0  0  0
   -9.1814    2.9064  -22.8258 H   0  0  0  0  0  0  0  0  0  0  0  0
   -6.6235    4.1876  -22.2284 H   0  0  0  0  0  0  0  0  0  0  0  0
   -7.9788    3.8845  -21.1165 H   0  0  0  0  0  0  0  0  0  0  0  0
   -6.7478    2.5911  -21.4482 H   0  0  0  0  0  0  0  0  0  0  0  0
  1  2  1  0
  2  3  1  0
  3  4  2  0
  3  5  1  0
  5  6  1  0
  6  7  1  0
  8  7  1  6
  8  9  1  0
  9 10  2  0
  9 11  1  0
 11 12  1  0
 12 13  2  0
 13 14  1  0
 14 15  2  0
 15 16  1  0
 16 17  2  0
 17 18  1  0
 18 19  2  0
 19 20  1  0
 20 21  2  0
 20 22  1  0
 19 23  1  0
 18 24  1  0
 17 25  1  0
 15 26  1  0
 13 27  1  0
 11 28  1  0
 28 29  1  0
 29 30  1  0
 30 31  1  0
 31 32  1  0
 30 33  1  0
 30 34  1  0
 29 35  1  1
 28 36  1  0
 28 37  1  0
  8 38  1  0
 38 39  2  0
 39 40  1  0
 40 41  1  0
 40 42  2  0
 42 43  1  0
 43 44  2  0
 44 45  1  0
 45 46  2  0
 43 47  1  0
 42 48  1  0
 39 49  1  0
  7 50  1  0
  7 51  1  0
  5 52  1  0
  5 53  1  0
  2 54  1  0
  1 55  1  0
  1 56  1  0
  1 57  1  0
 45  6  1  0
 29  8  1  0
 44 38  1  0
 21 12  1  0
 21 16  1  0
M  END
>  <cnnaffinities>  (61) 
[6.18996]

>  <score>  (61) 
6.18996

>  <index>  (61) 
63

>  <Smiles>  (61) 
C(N(C(=O)C(N1C([C@@]2(C(=O)N(c3c(nc(c4c(c(c(c(c34)[H])[H])[H])[H])[H])[H])C([C@@]2(C(O[H])([H])[H])[H])([H])[H])c2c(c(Cl)c(c(c2C1=O)[H])[H])[H])([H])[H])([H])[H])[H])([H])([H])[H]

>  <h>  (61) 
<NA>

>  <Training>  (61) 
True

>  <Success>  (61) 
True

>  <enamine_searched>  (61) 
False

>  <enamine_id>  (61) 
nan

$$$$

     RDKit          3D

 55 60  0  0  0  0  0  0  0  0999 V2000
   -7.8947   -3.6658  -24.0483 C   0  0  0  0  0  0  0  0  0  0  0  0
   -8.3027   -2.8637  -22.8051 C   0  0  1  0  0  0  0  0  0  0  0  0
   -7.1158   -2.6450  -21.8411 C   0  0  0  0  0  0  0  0  0  0  0  0
   -7.4108   -1.3818  -21.1939 N   0  0  0  0  0  0  0  0  0  0  0  0
   -6.6036   -0.8089  -20.1710 C   0  0  0  0  0  0  0  0  0  0  0  0
   -6.9037   -1.0475  -18.8560 C   0  0  0  0  0  0  0  0  0  0  0  0
   -6.2038   -0.5526  -17.8027 N   0  0  0  0  0  0  0  0  0  0  0  0
   -5.1694    0.2090  -18.0717 C   0  0  0  0  0  0  0  0  0  0  0  0
   -4.7324    0.5317  -19.3896 C   0  0  0  0  0  0  0  0  0  0  0  0
   -3.6032    1.3631  -19.6345 C   0  0  0  0  0  0  0  0  0  0  0  0
   -3.2051    1.6376  -20.9129 C   0  0  0  0  0  0  0  0  0  0  0  0
   -3.9090    1.0847  -22.0063 C   0  0  0  0  0  0  0  0  0  0  0  0
   -5.0028    0.2779  -21.7956 C   0  0  0  0  0  0  0  0  0  0  0  0
   -5.4587   -0.0030  -20.4797 C   0  0  0  0  0  0  0  0  0  0  0  0
   -5.5556   -0.1064  -22.6489 H   0  0  0  0  0  0  0  0  0  0  0  0
   -3.6084    1.3278  -23.0204 H   0  0  0  0  0  0  0  0  0  0  0  0
   -2.3538    2.2882  -21.0969 H   0  0  0  0  0  0  0  0  0  0  0  0
   -3.0721    1.7778  -18.7810 H   0  0  0  0  0  0  0  0  0  0  0  0
   -4.6191    0.6142  -17.2209 H   0  0  0  0  0  0  0  0  0  0  0  0
   -7.7530   -1.6748  -18.5963 H   0  0  0  0  0  0  0  0  0  0  0  0
   -8.3753   -0.6326  -21.8311 C   0  0  0  0  0  0  0  0  0  0  0  0
   -8.7125    0.4734  -21.4701 O   0  0  0  0  0  0  0  0  0  0  0  0
   -8.9225   -1.4448  -23.0390 C   0  0  1  0  0  0  0  0  0  0  0  0
   -8.4174   -0.8253  -24.3698 C   0  0  0  0  0  0  0  0  0  0  0  0
   -9.0361    0.4537  -24.6505 N   0  0  0  0  0  0  0  0  0  0  0  0
   -8.2302    1.6143  -25.0043 C   0  0  0  0  0  0  0  0  0  0  0  0
   -7.9775    2.5281  -23.8351 C   0  0  0  0  0  0  0  0  0  0  0  0
   -6.7865    2.5706  -23.1684 N   0  0  0  0  0  0  0  0  0  0  0  0
   -7.0249    3.4374  -22.2025 C   0  0  0  0  0  0  0  0  0  0  0  0
   -8.2754    3.9191  -22.3168 N   0  0  0  0  0  0  0  0  0  0  0  0
   -8.9004    3.3380  -23.3599 N   0  0  0  0  0  0  0  0  0  0  0  0
   -8.7943    4.5122  -21.6858 H   0  0  0  0  0  0  0  0  0  0  0  0
   -6.3486    3.7248  -21.4123 H   0  0  0  0  0  0  0  0  0  0  0  0
   -7.2604    1.2731  -25.3772 H   0  0  0  0  0  0  0  0  0  0  0  0
   -8.7680    2.1565  -25.7896 H   0  0  0  0  0  0  0  0  0  0  0  0
  -10.3925    0.6154  -24.5872 C   0  0  0  0  0  0  0  0  0  0  0  0
  -10.9495    1.5802  -25.0934 O   0  0  0  0  0  0  0  0  0  0  0  0
  -11.1332   -0.4341  -23.8106 C   0  0  0  0  0  0  0  0  0  0  0  0
  -12.5287   -0.3767  -23.7878 C   0  0  0  0  0  0  0  0  0  0  0  0
  -13.2553   -1.2094  -22.9600 C   0  0  0  0  0  0  0  0  0  0  0  0
  -12.5575   -2.0779  -22.1298 C   0  0  0  0  0  0  0  0  0  0  0  0
  -13.2528   -2.8477  -21.2768 F   0  0  0  0  0  0  0  0  0  0  0  0
  -11.1814   -2.1656  -22.1393 C   0  0  0  0  0  0  0  0  0  0  0  0
  -10.4436   -1.3802  -23.0347 C   0  0  0  0  0  0  0  0  0  0  0  0
  -10.7118   -2.8250  -21.4173 H   0  0  0  0  0  0  0  0  0  0  0  0
  -14.3375   -1.1809  -22.9119 H   0  0  0  0  0  0  0  0  0  0  0  0
  -13.0217    0.3585  -24.4136 H   0  0  0  0  0  0  0  0  0  0  0  0
   -8.6203   -1.5282  -25.1937 H   0  0  0  0  0  0  0  0  0  0  0  0
   -7.3364   -0.6635  -24.2942 H   0  0  0  0  0  0  0  0  0  0  0  0
   -7.0253   -3.4443  -21.0967 H   0  0  0  0  0  0  0  0  0  0  0  0
   -6.1614   -2.6046  -22.3910 H   0  0  0  0  0  0  0  0  0  0  0  0
   -9.0625   -3.4403  -22.2730 H   0  0  0  0  0  0  0  0  0  0  0  0
   -7.0814   -3.1731  -24.5945 H   0  0  0  0  0  0  0  0  0  0  0  0
   -8.7287   -3.8001  -24.7459 H   0  0  0  0  0  0  0  0  0  0  0  0
   -7.5364   -4.6621  -23.7666 H   0  0  0  0  0  0  0  0  0  0  0  0
  1  2  1  0
  2  3  1  0
  3  4  1  0
  4  5  1  0
  5  6  2  0
  6  7  1  0
  7  8  2  0
  8  9  1  0
  9 10  2  0
 10 11  1  0
 11 12  2  0
 12 13  1  0
 13 14  2  0
 13 15  1  0
 12 16  1  0
 11 17  1  0
 10 18  1  0
  8 19  1  0
  6 20  1  0
  4 21  1  0
 21 22  2  0
 21 23  1  0
 23 24  1  6
 24 25  1  0
 25 26  1  0
 26 27  1  0
 27 28  1  0
 28 29  2  0
 29 30  1  0
 30 31  1  0
 30 32  1  0
 29 33  1  0
 26 34  1  0
 26 35  1  0
 25 36  1  0
 36 37  2  0
 36 38  1  0
 38 39  2  0
 39 40  1  0
 40 41  2  0
 41 42  1  0
 41 43  1  0
 43 44  2  0
 43 45  1  0
 40 46  1  0
 39 47  1  0
 24 48  1  0
 24 49  1  0
  3 50  1  0
  3 51  1  0
  2 52  1  1
  1 53  1  0
  1 54  1  0
  1 55  1  0
 23  2  1  0
 31 27  2  0
 44 38  1  0
 14  5  1  0
 44 23  1  0
 14  9  1  0
M  END
>  <cnnaffinities>  (62) 
[6.47789, 6.3372]

>  <score>  (62) 
6.47789

>  <index>  (62) 
64

>  <Smiles>  (62) 
C([C@]1(C(N(c2c(nc(c3c(c(c(c(c23)[H])[H])[H])[H])[H])[H])C(=O)[C@]21C(N(C(c1nc(n(n1)[H])[H])([H])[H])C(=O)c1c(c(c(F)c(c21)[H])[H])[H])([H])[H])([H])[H])[H])([H])([H])[H]

>  <h>  (62) 
<NA>

>  <Training>  (62) 
True

>  <Success>  (62) 
True

>  <enamine_searched>  (62) 
False

>  <enamine_id>  (62) 
nan

$$$$

     RDKit          3D

 55 60  0  0  0  0  0  0  0  0999 V2000
   -7.8772   -3.5903  -24.1092 C   0  0  0  0  0  0  0  0  0  0  0  0
   -8.2850   -2.8482  -22.8272 C   0  0  1  0  0  0  0  0  0  0  0  0
   -7.0792   -2.6109  -21.8894 C   0  0  0  0  0  0  0  0  0  0  0  0
   -7.4058   -1.3807  -21.1965 N   0  0  0  0  0  0  0  0  0  0  0  0
   -6.6020   -0.8094  -20.1712 C   0  0  0  0  0  0  0  0  0  0  0  0
   -6.9082   -1.0436  -18.8572 C   0  0  0  0  0  0  0  0  0  0  0  0
   -6.2072   -0.5514  -17.8038 N   0  0  0  0  0  0  0  0  0  0  0  0
   -5.1724    0.2085  -18.0743 C   0  0  0  0  0  0  0  0  0  0  0  0
   -4.7354    0.5342  -19.3915 C   0  0  0  0  0  0  0  0  0  0  0  0
   -3.6068    1.3662  -19.6358 C   0  0  0  0  0  0  0  0  0  0  0  0
   -3.2103    1.6427  -20.9133 C   0  0  0  0  0  0  0  0  0  0  0  0
   -3.9147    1.0909  -22.0068 C   0  0  0  0  0  0  0  0  0  0  0  0
   -5.0057    0.2797  -21.7976 C   0  0  0  0  0  0  0  0  0  0  0  0
   -5.4582   -0.0047  -20.4815 C   0  0  0  0  0  0  0  0  0  0  0  0
   -5.5616   -0.0968  -22.6526 H   0  0  0  0  0  0  0  0  0  0  0  0
   -3.6139    1.3386  -23.0203 H   0  0  0  0  0  0  0  0  0  0  0  0
   -2.3613    2.2967  -21.0976 H   0  0  0  0  0  0  0  0  0  0  0  0
   -3.0754    1.7777  -18.7806 H   0  0  0  0  0  0  0  0  0  0  0  0
   -4.6220    0.6125  -17.2234 H   0  0  0  0  0  0  0  0  0  0  0  0
   -7.7602   -1.6703  -18.6031 H   0  0  0  0  0  0  0  0  0  0  0  0
   -8.4338   -0.6633  -21.7648 C   0  0  0  0  0  0  0  0  0  0  0  0
   -8.8285    0.3987  -21.3316 O   0  0  0  0  0  0  0  0  0  0  0  0
   -8.9708   -1.4505  -22.9962 C   0  0  1  0  0  0  0  0  0  0  0  0
   -8.5195   -0.7782  -24.3215 C   0  0  0  0  0  0  0  0  0  0  0  0
   -9.2025    0.4715  -24.5713 N   0  0  0  0  0  0  0  0  0  0  0  0
   -8.4383    1.6649  -24.9033 C   0  0  0  0  0  0  0  0  0  0  0  0
   -8.1396    2.5193  -23.7045 C   0  0  0  0  0  0  0  0  0  0  0  0
   -8.9547    3.3792  -23.0599 C   0  0  0  0  0  0  0  0  0  0  0  0
   -8.2685    3.9263  -22.0252 O   0  0  0  0  0  0  0  0  0  0  0  0
   -7.0624    3.3384  -22.0705 C   0  0  0  0  0  0  0  0  0  0  0  0
   -6.9111    2.5076  -23.0518 N   0  0  0  0  0  0  0  0  0  0  0  0
   -6.3946    3.5840  -21.2535 H   0  0  0  0  0  0  0  0  0  0  0  0
   -9.9892    3.6656  -23.1634 H   0  0  0  0  0  0  0  0  0  0  0  0
   -9.0410    2.2247  -25.6250 H   0  0  0  0  0  0  0  0  0  0  0  0
   -7.4943    1.3651  -25.3708 H   0  0  0  0  0  0  0  0  0  0  0  0
  -10.5533    0.6074  -24.4172 C   0  0  0  0  0  0  0  0  0  0  0  0
  -11.1526    1.5998  -24.8167 O   0  0  0  0  0  0  0  0  0  0  0  0
  -11.2372   -0.5068  -23.6797 C   0  0  0  0  0  0  0  0  0  0  0  0
  -12.6327   -0.5137  -23.6279 C   0  0  0  0  0  0  0  0  0  0  0  0
  -13.3011   -1.4093  -22.8165 C   0  0  0  0  0  0  0  0  0  0  0  0
  -12.5494   -2.2774  -22.0333 C   0  0  0  0  0  0  0  0  0  0  0  0
  -13.1905   -3.1063  -21.1927 F   0  0  0  0  0  0  0  0  0  0  0  0
  -11.1721   -2.3049  -22.0786 C   0  0  0  0  0  0  0  0  0  0  0  0
  -10.4914   -1.4532  -22.9585 C   0  0  0  0  0  0  0  0  0  0  0  0
  -10.6566   -2.9720  -21.3957 H   0  0  0  0  0  0  0  0  0  0  0  0
  -14.3813   -1.4318  -22.7423 H   0  0  0  0  0  0  0  0  0  0  0  0
  -13.1662    0.2219  -24.2206 H   0  0  0  0  0  0  0  0  0  0  0  0
   -8.7004   -1.4758  -25.1564 H   0  0  0  0  0  0  0  0  0  0  0  0
   -7.4479   -0.5571  -24.2506 H   0  0  0  0  0  0  0  0  0  0  0  0
   -6.1422   -2.5109  -22.4616 H   0  0  0  0  0  0  0  0  0  0  0  0
   -6.9361   -3.4289  -21.1721 H   0  0  0  0  0  0  0  0  0  0  0  0
   -9.0050   -3.4741  -22.2946 H   0  0  0  0  0  0  0  0  0  0  0  0
   -8.7240   -3.7349  -24.7907 H   0  0  0  0  0  0  0  0  0  0  0  0
   -7.0998   -3.0425  -24.6577 H   0  0  0  0  0  0  0  0  0  0  0  0
   -7.4691   -4.5805  -23.8732 H   0  0  0  0  0  0  0  0  0  0  0  0
  1  2  1  0
  2  3  1  0
  3  4  1  0
  4  5  1  0
  5  6  2  0
  6  7  1  0
  7  8  2  0
  8  9  1  0
  9 10  2  0
 10 11  1  0
 11 12  2  0
 12 13  1  0
 13 14  2  0
 13 15  1  0
 12 16  1  0
 11 17  1  0
 10 18  1  0
  8 19  1  0
  6 20  1  0
  4 21  1  0
 21 22  2  0
 21 23  1  0
 23 24  1  6
 24 25  1  0
 25 26  1  0
 26 27  1  0
 27 28  2  0
 28 29  1  0
 29 30  1  0
 30 31  2  0
 30 32  1  0
 28 33  1  0
 26 34  1  0
 26 35  1  0
 25 36  1  0
 36 37  2  0
 36 38  1  0
 38 39  2  0
 39 40  1  0
 40 41  2  0
 41 42  1  0
 41 43  1  0
 43 44  2  0
 43 45  1  0
 40 46  1  0
 39 47  1  0
 24 48  1  0
 24 49  1  0
  3 50  1  0
  3 51  1  0
  2 52  1  1
  1 53  1  0
  1 54  1  0
  1 55  1  0
 23  2  1  0
 31 27  1  0
 44 38  1  0
 14  5  1  0
 44 23  1  0
 14  9  1  0
M  END
>  <cnnaffinities>  (63) 
[6.1734, 6.2808]

>  <score>  (63) 
6.1734

>  <index>  (63) 
65

>  <Smiles>  (63) 
C([C@]1(C(N(c2c(nc(c3c(c(c(c(c23)[H])[H])[H])[H])[H])[H])C(=O)[C@]21C(N(C(c1c(oc(n1)[H])[H])([H])[H])C(=O)c1c(c(c(F)c(c21)[H])[H])[H])([H])[H])([H])[H])[H])([H])([H])[H]

>  <h>  (63) 
<NA>

>  <Training>  (63) 
True

>  <Success>  (63) 
True

>  <enamine_searched>  (63) 
False

>  <enamine_id>  (63) 
nan

$$$$

     RDKit          3D

 44 47  0  0  0  0  0  0  0  0999 V2000
   -9.8236    1.4199  -24.4304 C   0  0  0  0  0  0  0  0  0  0  0  0
  -10.9580    0.5041  -23.9938 C   0  0  0  0  0  0  0  0  0  0  0  0
  -10.7774   -0.1444  -22.6088 C   0  0  1  0  0  0  0  0  0  0  0  0
  -11.9959   -0.9587  -22.2769 C   0  0  0  0  0  0  0  0  0  0  0  0
  -13.3238   -0.4426  -22.1250 C   0  0  0  0  0  0  0  0  0  0  0  0
  -14.2162   -1.4148  -21.8014 C   0  0  0  0  0  0  0  0  0  0  0  0
  -13.4767   -2.9683  -21.7503 S   0  0  0  0  0  0  0  0  0  0  0  0
  -11.9267   -2.3064  -22.1083 C   0  0  0  0  0  0  0  0  0  0  0  0
  -10.6905   -3.1503  -22.2546 C   0  0  0  0  0  0  0  0  0  0  0  0
   -9.6556   -2.3130  -23.0073 C   0  0  0  0  0  0  0  0  0  0  0  0
   -9.5722   -0.9614  -22.4595 N   0  0  0  0  0  0  0  0  0  0  0  0
   -8.5264   -0.4264  -21.7485 C   0  0  0  0  0  0  0  0  0  0  0  0
   -8.4695    0.7609  -21.4641 O   0  0  0  0  0  0  0  0  0  0  0  0
   -7.4610   -1.4118  -21.2629 C   0  0  0  0  0  0  0  0  0  0  0  0
   -6.5970   -0.8339  -20.1813 C   0  0  0  0  0  0  0  0  0  0  0  0
   -6.9084   -1.0538  -18.8663 C   0  0  0  0  0  0  0  0  0  0  0  0
   -6.2369   -0.5498  -17.7955 N   0  0  0  0  0  0  0  0  0  0  0  0
   -5.1962    0.2060  -18.0639 C   0  0  0  0  0  0  0  0  0  0  0  0
   -4.7572    0.5221  -19.3776 C   0  0  0  0  0  0  0  0  0  0  0  0
   -3.6274    1.3491  -19.6119 C   0  0  0  0  0  0  0  0  0  0  0  0
   -3.2346    1.6432  -20.8897 C   0  0  0  0  0  0  0  0  0  0  0  0
   -3.9535    1.1254  -21.9911 C   0  0  0  0  0  0  0  0  0  0  0  0
   -5.0545    0.3274  -21.7916 C   0  0  0  0  0  0  0  0  0  0  0  0
   -5.4791   -0.0011  -20.4751 C   0  0  0  0  0  0  0  0  0  0  0  0
   -5.6144   -0.0453  -22.6442 H   0  0  0  0  0  0  0  0  0  0  0  0
   -3.6320    1.3659  -23.0026 H   0  0  0  0  0  0  0  0  0  0  0  0
   -2.3741    2.2854  -21.0677 H   0  0  0  0  0  0  0  0  0  0  0  0
   -3.0915    1.7486  -18.7539 H   0  0  0  0  0  0  0  0  0  0  0  0
   -4.6372    0.6154  -17.2199 H   0  0  0  0  0  0  0  0  0  0  0  0
   -7.7603   -1.6842  -18.6078 H   0  0  0  0  0  0  0  0  0  0  0  0
   -7.9958   -2.2874  -20.8713 H   0  0  0  0  0  0  0  0  0  0  0  0
   -6.8799   -1.7579  -22.1286 H   0  0  0  0  0  0  0  0  0  0  0  0
   -8.6678   -2.7839  -23.0516 H   0  0  0  0  0  0  0  0  0  0  0  0
  -10.0146   -2.2122  -24.0382 H   0  0  0  0  0  0  0  0  0  0  0  0
  -10.3123   -3.4686  -21.2740 H   0  0  0  0  0  0  0  0  0  0  0  0
  -10.9206   -4.0712  -22.8024 H   0  0  0  0  0  0  0  0  0  0  0  0
  -15.2621   -1.2889  -21.5632 H   0  0  0  0  0  0  0  0  0  0  0  0
  -13.6000    0.6027  -22.2616 H   0  0  0  0  0  0  0  0  0  0  0  0
  -10.6473    0.6779  -21.8934 H   0  0  0  0  0  0  0  0  0  0  0  0
  -11.8892    1.0750  -23.9037 H   0  0  0  0  0  0  0  0  0  0  0  0
  -11.1654   -0.2610  -24.7511 H   0  0  0  0  0  0  0  0  0  0  0  0
   -8.8798    0.8789  -24.5596 H   0  0  0  0  0  0  0  0  0  0  0  0
  -10.0554    1.9154  -25.3814 H   0  0  0  0  0  0  0  0  0  0  0  0
   -9.6665    2.1999  -23.6791 H   0  0  0  0  0  0  0  0  0  0  0  0
  1  2  1  0
  2  3  1  0
  3  4  1  0
  4  5  1  0
  5  6  2  0
  6  7  1  0
  7  8  1  0
  8  9  1  0
  9 10  1  0
 10 11  1  0
 11 12  1  0
 12 13  2  0
 12 14  1  0
 14 15  1  0
 15 16  2  0
 16 17  1  0
 17 18  2  0
 18 19  1  0
 19 20  2  0
 20 21  1  0
 21 22  2  0
 22 23  1  0
 23 24  2  0
 23 25  1  0
 22 26  1  0
 21 27  1  0
 20 28  1  0
 18 29  1  0
 16 30  1  0
 14 31  1  0
 14 32  1  0
 10 33  1  0
 10 34  1  0
  9 35  1  0
  9 36  1  0
  6 37  1  0
  5 38  1  0
  3 39  1  1
  2 40  1  0
  2 41  1  0
  1 42  1  0
  1 43  1  0
  1 44  1  0
 11  3  1  0
 24 15  1  0
  8  4  2  0
 24 19  1  0
M  END
>  <cnnaffinities>  (64) 
[5.73898]

>  <score>  (64) 
5.73898

>  <index>  (64) 
66

>  <Smiles>  (64) 
C(C([C@]1(c2c(c(sc2C(C(N1C(=O)C(c1c(nc(c2c(c(c(c(c12)[H])[H])[H])[H])[H])[H])([H])[H])([H])[H])([H])[H])[H])[H])[H])([H])[H])([H])([H])[H]

>  <h>  (64) 
<NA>

>  <Training>  (64) 
True

>  <Success>  (64) 
True

>  <enamine_searched>  (64) 
False

>  <enamine_id>  (64) 
nan

$$$$

     RDKit          3D

 58 63  0  0  0  0  0  0  0  0999 V2000
   -5.7402    4.0654  -22.3565 C   0  0  0  0  0  0  0  0  0  0  0  0
   -6.8364    3.5294  -23.2189 C   0  0  0  0  0  0  0  0  0  0  0  0
   -6.7735    2.4117  -24.0951 C   0  0  0  0  0  0  0  0  0  0  0  0
   -8.0290    2.3167  -24.6010 C   0  0  0  0  0  0  0  0  0  0  0  0
   -8.6821    1.3114  -25.5009 C   0  0  0  0  0  0  0  0  0  0  0  0
   -9.3938    0.2922  -24.7464 N   0  0  0  0  0  0  0  0  0  0  0  0
   -8.7559   -0.9816  -24.4654 C   0  0  0  0  0  0  0  0  0  0  0  0
   -8.9709   -1.4612  -23.0085 C   0  0  2  0  0  0  0  0  0  0  0  0
   -8.2139   -0.5590  -22.0122 C   0  0  0  0  0  0  0  0  0  0  0  0
   -8.3514    0.6358  -21.8805 O   0  0  0  0  0  0  0  0  0  0  0  0
   -7.3738   -1.3412  -21.2475 N   0  0  0  0  0  0  0  0  0  0  0  0
   -6.5929   -0.8084  -20.1960 C   0  0  0  0  0  0  0  0  0  0  0  0
   -6.8975   -1.0706  -18.8845 C   0  0  0  0  0  0  0  0  0  0  0  0
   -6.2246   -0.5649  -17.8186 N   0  0  0  0  0  0  0  0  0  0  0  0
   -5.1924    0.2076  -18.0785 C   0  0  0  0  0  0  0  0  0  0  0  0
   -4.7448    0.5270  -19.3939 C   0  0  0  0  0  0  0  0  0  0  0  0
   -3.6118    1.3517  -19.6264 C   0  0  0  0  0  0  0  0  0  0  0  0
   -3.1948    1.6177  -20.9037 C   0  0  0  0  0  0  0  0  0  0  0  0
   -3.8889    1.0777  -22.0076 C   0  0  0  0  0  0  0  0  0  0  0  0
   -4.9905    0.2831  -21.8145 C   0  0  0  0  0  0  0  0  0  0  0  0
   -5.4539   -0.0008  -20.4965 C   0  0  0  0  0  0  0  0  0  0  0  0
   -5.5137   -0.1363  -22.6684 H   0  0  0  0  0  0  0  0  0  0  0  0
   -3.5441    1.2978  -23.0162 H   0  0  0  0  0  0  0  0  0  0  0  0
   -2.3271    2.2488  -21.0765 H   0  0  0  0  0  0  0  0  0  0  0  0
   -3.0829    1.7619  -18.7720 H   0  0  0  0  0  0  0  0  0  0  0  0
   -4.6357    0.6132  -17.2313 H   0  0  0  0  0  0  0  0  0  0  0  0
   -7.7598   -1.6930  -18.6456 H   0  0  0  0  0  0  0  0  0  0  0  0
   -7.6371   -2.7527  -21.3874 C   0  0  0  0  0  0  0  0  0  0  0  0
   -8.3705   -2.8763  -22.7380 C   0  0  2  0  0  0  0  0  0  0  0  0
   -7.4666   -3.4598  -23.8260 C   0  0  0  0  0  0  0  0  0  0  0  0
   -7.1236   -4.4545  -23.5234 H   0  0  0  0  0  0  0  0  0  0  0  0
   -6.5841   -2.8405  -24.0109 H   0  0  0  0  0  0  0  0  0  0  0  0
   -8.0106   -3.5878  -24.7665 H   0  0  0  0  0  0  0  0  0  0  0  0
   -9.1874   -3.5947  -22.6537 H   0  0  0  0  0  0  0  0  0  0  0  0
   -8.2729   -3.1088  -20.5706 H   0  0  0  0  0  0  0  0  0  0  0  0
   -6.6980   -3.3134  -21.3593 H   0  0  0  0  0  0  0  0  0  0  0  0
  -10.4702   -1.3799  -22.7416 C   0  0  0  0  0  0  0  0  0  0  0  0
  -11.0987   -2.2603  -21.8631 C   0  0  0  0  0  0  0  0  0  0  0  0
  -12.4711   -2.2000  -21.7190 C   0  0  0  0  0  0  0  0  0  0  0  0
  -13.0586   -3.1596  -20.9868 F   0  0  0  0  0  0  0  0  0  0  0  0
  -13.2494   -1.1726  -22.2428 C   0  0  0  0  0  0  0  0  0  0  0  0
  -12.6105   -0.2469  -23.0460 C   0  0  0  0  0  0  0  0  0  0  0  0
  -11.2501   -0.3791  -23.3310 C   0  0  0  0  0  0  0  0  0  0  0  0
  -10.6512    0.5930  -24.2956 C   0  0  0  0  0  0  0  0  0  0  0  0
  -11.2617    1.5932  -24.6366 O   0  0  0  0  0  0  0  0  0  0  0  0
  -13.1501    0.5935  -23.4680 H   0  0  0  0  0  0  0  0  0  0  0  0
  -14.3110   -1.1294  -22.0161 H   0  0  0  0  0  0  0  0  0  0  0  0
  -10.5567   -3.0121  -21.2993 H   0  0  0  0  0  0  0  0  0  0  0  0
   -9.1872   -1.7390  -25.1268 H   0  0  0  0  0  0  0  0  0  0  0  0
   -7.6910   -0.9074  -24.6977 H   0  0  0  0  0  0  0  0  0  0  0  0
   -9.3991    1.7988  -26.1631 H   0  0  0  0  0  0  0  0  0  0  0  0
   -7.9253    0.8208  -26.1211 H   0  0  0  0  0  0  0  0  0  0  0  0
   -8.7878    3.2963  -24.0955 O   0  0  0  0  0  0  0  0  0  0  0  0
   -8.0341    4.0690  -23.2382 N   0  0  0  0  0  0  0  0  0  0  0  0
   -5.9287    1.7739  -24.2977 H   0  0  0  0  0  0  0  0  0  0  0  0
   -5.6998    3.5051  -21.4163 H   0  0  0  0  0  0  0  0  0  0  0  0
   -4.7685    3.9533  -22.8497 H   0  0  0  0  0  0  0  0  0  0  0  0
   -5.8987    5.1184  -22.1247 H   0  0  0  0  0  0  0  0  0  0  0  0
  1  2  1  0
  2  3  1  0
  3  4  2  0
  4  5  1  0
  5  6  1  0
  6  7  1  0
  8  7  1  6
  8  9  1  0
  9 10  2  0
  9 11  1  0
 11 12  1  0
 12 13  2  0
 13 14  1  0
 14 15  2  0
 15 16  1  0
 16 17  2  0
 17 18  1  0
 18 19  2  0
 19 20  1  0
 20 21  2  0
 20 22  1  0
 19 23  1  0
 18 24  1  0
 17 25  1  0
 15 26  1  0
 13 27  1  0
 11 28  1  0
 28 29  1  0
 29 30  1  0
 30 31  1  0
 30 32  1  0
 30 33  1  0
 29 34  1  1
 28 35  1  0
 28 36  1  0
  8 37  1  0
 37 38  2  0
 38 39  1  0
 39 40  1  0
 39 41  2  0
 41 42  1  0
 42 43  2  0
 43 44  1  0
 44 45  2  0
 42 46  1  0
 41 47  1  0
 38 48  1  0
  7 49  1  0
  7 50  1  0
  5 51  1  0
  5 52  1  0
  4 53  1  0
 53 54  1  0
  3 55  1  0
  1 56  1  0
  1 57  1  0
  1 58  1  0
 54  2  2  0
 44  6  1  0
 29  8  1  0
 43 37  1  0
 21 12  1  0
 21 16  1  0
M  END
>  <cnnaffinities>  (65) 
[6.42405]

>  <score>  (65) 
6.42405

>  <index>  (65) 
67

>  <Smiles>  (65) 
C(c1c(c(C(N2C([C@@]3(C(=O)N(c4c(nc(c5c(c(c(c(c45)[H])[H])[H])[H])[H])[H])C([C@@]3(C([H])([H])[H])[H])([H])[H])c3c(c(F)c(c(c3C2=O)[H])[H])[H])([H])[H])([H])[H])on1)[H])([H])([H])[H]

>  <h>  (65) 
<NA>

>  <Training>  (65) 
True

>  <Success>  (65) 
True

>  <enamine_searched>  (65) 
False

>  <enamine_id>  (65) 
nan

$$$$

     RDKit          3D

 65 70  0  0  0  0  0  0  0  0999 V2000
   -8.8914    0.4704  -21.0853 O   0  0  0  0  0  0  0  0  0  0  0  0
   -8.3724   -0.3513  -21.8289 C   0  0  0  0  0  0  0  0  0  0  0  0
   -7.4165   -1.4142  -21.2528 C   0  0  0  0  0  0  0  0  0  0  0  0
   -6.5582   -0.8347  -20.1640 C   0  0  0  0  0  0  0  0  0  0  0  0
   -6.8733   -1.0443  -18.8450 C   0  0  0  0  0  0  0  0  0  0  0  0
   -6.1947   -0.5343  -17.7863 N   0  0  0  0  0  0  0  0  0  0  0  0
   -5.1556    0.2227  -18.0595 C   0  0  0  0  0  0  0  0  0  0  0  0
   -4.7230    0.5389  -19.3765 C   0  0  0  0  0  0  0  0  0  0  0  0
   -3.6035    1.3731  -19.6191 C   0  0  0  0  0  0  0  0  0  0  0  0
   -3.2162    1.6630  -20.9018 C   0  0  0  0  0  0  0  0  0  0  0  0
   -3.9306    1.1248  -21.9955 C   0  0  0  0  0  0  0  0  0  0  0  0
   -5.0170    0.3076  -21.7847 C   0  0  0  0  0  0  0  0  0  0  0  0
   -5.4426   -0.0019  -20.4661 C   0  0  0  0  0  0  0  0  0  0  0  0
   -5.5462   -0.1026  -22.6391 H   0  0  0  0  0  0  0  0  0  0  0  0
   -3.6140    1.3605  -23.0073 H   0  0  0  0  0  0  0  0  0  0  0  0
   -2.3630    2.3100  -21.0876 H   0  0  0  0  0  0  0  0  0  0  0  0
   -3.0630    1.7842  -18.7721 H   0  0  0  0  0  0  0  0  0  0  0  0
   -4.6005    0.6295  -17.2149 H   0  0  0  0  0  0  0  0  0  0  0  0
   -7.7319   -1.6630  -18.5835 H   0  0  0  0  0  0  0  0  0  0  0  0
   -8.0361   -2.2272  -20.8431 H   0  0  0  0  0  0  0  0  0  0  0  0
   -6.8067   -1.8481  -22.0568 H   0  0  0  0  0  0  0  0  0  0  0  0
   -8.6142   -0.3820  -23.2148 N   0  0  0  0  0  0  0  0  0  0  0  0
   -8.9218   -1.6662  -23.9572 C   0  0  0  0  0  0  0  0  0  0  0  0
  -10.5017   -1.9510  -24.0210 C   0  0  0  0  0  0  0  0  0  0  0  0
  -11.2541   -1.9989  -25.4229 C   0  0  0  0  0  0  0  0  0  0  0  0
  -11.2542   -1.9998  -25.4225 C   0  0  0  0  0  0  0  0  0  0  0  0
  -12.7808   -2.3519  -22.8833 C   0  0  0  0  0  0  0  0  0  0  0  0
  -12.6250   -2.3470  -23.1384 C   0  0  0  0  0  0  0  0  0  0  0  0
  -13.7481   -2.5437  -20.9883 Cl  0  0  0  0  0  0  0  0  0  0  0  0
  -11.2865   -2.1333  -22.8028 C   0  0  0  0  0  0  0  0  0  0  0  0
  -10.7610   -2.0265  -21.7378 H   0  0  0  0  0  0  0  0  0  0  0  0
  -13.6814   -2.3009  -23.7288 H   0  0  0  0  0  0  0  0  0  0  0  0
  -12.2927   -2.1618  -26.1228 H   0  0  0  0  0  0  0  0  0  0  0  0
  -10.4123   -2.4662  -26.2379 H   0  0  0  0  0  0  0  0  0  0  0  0
   -8.3464   -2.4681  -23.3761 H   0  0  0  0  0  0  0  0  0  0  0  0
   -8.3439   -1.5767  -24.9142 H   0  0  0  0  0  0  0  0  0  0  0  0
   -8.9397    0.9088  -23.8687 C   0  0  2  0  0  0  0  0  0  0  0  0
  -10.3086    1.5579  -23.5436 C   0  0  0  0  0  0  0  0  0  0  0  0
  -10.5215    2.5802  -24.6907 C   0  0  0  0  0  0  0  0  0  0  0  0
   -9.2431    2.4170  -25.5126 C   0  0  2  0  0  0  0  0  0  0  0  0
   -8.9971    0.8994  -25.4077 C   0  0  0  0  0  0  0  0  0  0  0  0
   -9.8434    0.2438  -25.7725 H   0  0  0  0  0  0  0  0  0  0  0  0
   -8.0343    0.6200  -25.8629 H   0  0  0  0  0  0  0  0  0  0  0  0
   -8.1102    3.0174  -24.6865 N   0  0  2  0  0  4  0  0  0  0  0  0
   -6.8985    3.3243  -25.4949 C   0  0  0  0  0  0  0  0  0  0  0  0
   -7.0565    4.6028  -26.3081 C   0  0  0  0  0  0  0  0  0  0  0  0
   -6.9142    5.9114  -25.5190 C   0  0  0  0  0  0  0  0  0  0  0  0
   -5.7048    6.2582  -26.2040 O   0  0  0  0  0  0  0  0  0  0  0  0
   -5.7722    5.0723  -27.0060 C   0  0  0  0  0  0  0  0  0  0  0  0
   -5.8711    5.2961  -28.0774 H   0  0  0  0  0  0  0  0  0  0  0  0
   -4.8992    4.4199  -26.8549 H   0  0  0  0  0  0  0  0  0  0  0  0
   -7.7131    6.6468  -25.6786 H   0  0  0  0  0  0  0  0  0  0  0  0
   -6.7520    5.7724  -24.4400 H   0  0  0  0  0  0  0  0  0  0  0  0
   -7.9353    4.5636  -26.9610 H   0  0  0  0  0  0  0  0  0  0  0  0
   -6.6696    2.4832  -26.1682 H   0  0  0  0  0  0  0  0  0  0  0  0
   -6.0314    3.4407  -24.8279 H   0  0  0  0  0  0  0  0  0  0  0  0
   -7.8661    1.9819  -23.6155 C   0  0  0  0  0  0  0  0  0  0  0  0
   -7.9376    2.4182  -22.6169 H   0  0  0  0  0  0  0  0  0  0  0  0
   -6.8686    1.5489  -23.7427 H   0  0  0  0  0  0  0  0  0  0  0  0
   -8.4047    3.9085  -24.2426 H   0  0  0  0  0  0  0  0  0  0  0  0
   -9.2710    2.8522  -26.5092 H   0  0  0  0  0  0  0  0  0  0  0  0
  -10.6669    3.6087  -24.3379 H   0  0  0  0  0  0  0  0  0  0  0  0
  -11.3893    2.3061  -25.3084 H   0  0  0  0  0  0  0  0  0  0  0  0
  -11.0722    0.7779  -23.5848 H   0  0  0  0  0  0  0  0  0  0  0  0
  -10.3242    2.0233  -22.5586 H   0  0  0  0  0  0  0  0  0  0  0  0
  1  2  2  0
  2  3  1  0
  3  4  1  0
  4  5  2  0
  5  6  1  0
  6  7  2  0
  7  8  1  0
  8  9  2  0
  9 10  1  0
 10 11  2  0
 11 12  1  0
 12 13  2  0
 12 14  1  0
 11 15  1  0
 10 16  1  0
  9 17  1  0
  7 18  1  0
  5 19  1  0
  3 20  1  0
  3 21  1  0
  2 22  1  0
 22 23  1  0
 23 24  1  0
 24 25  2  0
 25 26  1  0
 26 27  2  0
 27 28  1  0
 28 29  1  0
 28 30  2  0
 30 31  1  0
 27 32  1  0
 26 33  1  0
 25 34  1  0
 23 35  1  0
 23 36  1  0
 37 22  1  1
 37 38  1  0
 38 39  1  0
 39 40  1  0
 40 41  1  0
 41 42  1  0
 41 43  1  0
 40 44  1  0
 44 45  1  0
 45 46  1  0
 46 47  1  0
 47 48  1  0
 48 49  1  0
 49 50  1  0
 49 51  1  0
 47 52  1  0
 47 53  1  0
 46 54  1  0
 45 55  1  0
 45 56  1  0
 44 57  1  0
 57 58  1  0
 57 59  1  0
 44 60  1  1
 40 61  1  6
 39 62  1  0
 39 63  1  0
 38 64  1  0
 38 65  1  0
 13  4  1  0
 30 24  1  0
 41 37  1  0
 49 46  1  0
 13  8  1  0
 57 37  1  0
M  CHG  1  44   1
M  END
>  <cnnaffinities>  (66) 
[5.91284]

>  <score>  (66) 
5.91284

>  <index>  (66) 
68

>  <Smiles>  (66) 
O=C(C(c1c(nc(c2c(c(c(c(c12)[H])[H])[H])[H])[H])[H])([H])[H])N(C(c1c(c(c(c(Cl)c1[H])[H])[H])[H])([H])[H])[C@]12C(C([C@](C1([H])[H])([N@+](C(C1(C(OC1([H])[H])([H])[H])[H])([H])[H])(C2([H])[H])[H])[H])([H])[H])([H])[H]

>  <h>  (66) 
<NA>

>  <Training>  (66) 
True

>  <Success>  (66) 
True

>  <enamine_searched>  (66) 
False

>  <enamine_id>  (66) 
nan

$$$$

     RDKit          3D

 63 67  0  0  0  0  0  0  0  0999 V2000
   -9.9541   -6.3859  -28.1253 C   0  0  0  0  0  0  0  0  0  0  0  0
  -10.3143   -5.3795  -27.3393 C   0  0  0  0  0  0  0  0  0  0  0  0
   -9.3276   -4.7025  -26.4723 C   0  0  0  0  0  0  0  0  0  0  0  0
   -8.1396   -4.9627  -26.4799 O   0  0  0  0  0  0  0  0  0  0  0  0
   -9.8661   -3.6845  -25.6732 N   0  0  0  0  0  0  0  0  0  0  0  0
  -11.0126   -4.0136  -24.8299 C   0  0  0  0  0  0  0  0  0  0  0  0
  -11.5029   -2.8127  -24.0493 C   0  0  0  0  0  0  0  0  0  0  0  0
  -10.3427   -2.1846  -23.3009 C   0  0  0  0  0  0  0  0  0  0  0  0
   -9.2577   -1.7871  -24.2780 C   0  0  0  0  0  0  0  0  0  0  0  0
   -9.0602   -2.5598  -25.4356 C   0  0  0  0  0  0  0  0  0  0  0  0
   -8.1128   -2.1780  -26.3972 C   0  0  0  0  0  0  0  0  0  0  0  0
   -7.3296   -1.0570  -26.2052 C   0  0  0  0  0  0  0  0  0  0  0  0
   -7.4798   -0.3121  -25.0448 C   0  0  0  0  0  0  0  0  0  0  0  0
   -8.4367   -0.6834  -24.1105 C   0  0  0  0  0  0  0  0  0  0  0  0
   -8.5755    0.2624  -22.8869 N   0  0  1  0  0  4  0  0  0  0  0  0
   -9.7134    1.3256  -23.0485 C   0  0  0  0  0  0  0  0  0  0  0  0
   -9.4324    2.2157  -24.2221 C   0  0  0  0  0  0  0  0  0  0  0  0
   -8.5738    3.2993  -24.0459 C   0  0  0  0  0  0  0  0  0  0  0  0
   -8.2862    4.1527  -25.1018 C   0  0  0  0  0  0  0  0  0  0  0  0
   -8.8046    3.9174  -26.3663 C   0  0  0  0  0  0  0  0  0  0  0  0
   -9.6181    2.8109  -26.5447 C   0  0  0  0  0  0  0  0  0  0  0  0
  -10.1218    2.4396  -28.1600 Cl  0  0  0  0  0  0  0  0  0  0  0  0
   -9.9742    1.9823  -25.4887 C   0  0  0  0  0  0  0  0  0  0  0  0
  -10.6229    1.1295  -25.6601 H   0  0  0  0  0  0  0  0  0  0  0  0
   -8.5977    4.5710  -27.2087 H   0  0  0  0  0  0  0  0  0  0  0  0
   -7.6397    5.0064  -24.9458 H   0  0  0  0  0  0  0  0  0  0  0  0
   -8.1257    3.4687  -23.0676 H   0  0  0  0  0  0  0  0  0  0  0  0
  -10.6623    0.8002  -23.1614 H   0  0  0  0  0  0  0  0  0  0  0  0
   -9.7486    1.9021  -22.1231 H   0  0  0  0  0  0  0  0  0  0  0  0
   -8.5754   -0.3306  -21.5594 C   0  0  0  0  0  0  0  0  0  0  0  0
   -9.4192   -0.0126  -20.7604 O   0  0  0  0  0  0  0  0  0  0  0  0
   -7.4642   -1.3382  -21.2567 C   0  0  0  0  0  0  0  0  0  0  0  0
   -6.5673   -0.8176  -20.1590 C   0  0  0  0  0  0  0  0  0  0  0  0
   -6.8815   -1.0377  -18.8417 C   0  0  0  0  0  0  0  0  0  0  0  0
   -6.1950   -0.5481  -17.7744 N   0  0  0  0  0  0  0  0  0  0  0  0
   -5.1573    0.2103  -18.0454 C   0  0  0  0  0  0  0  0  0  0  0  0
   -4.7131    0.5232  -19.3610 C   0  0  0  0  0  0  0  0  0  0  0  0
   -3.5976    1.3658  -19.6026 C   0  0  0  0  0  0  0  0  0  0  0  0
   -3.2092    1.6597  -20.8811 C   0  0  0  0  0  0  0  0  0  0  0  0
   -3.9144    1.1160  -21.9789 C   0  0  0  0  0  0  0  0  0  0  0  0
   -4.9964    0.2953  -21.7723 C   0  0  0  0  0  0  0  0  0  0  0  0
   -5.4322   -0.0112  -20.4554 C   0  0  0  0  0  0  0  0  0  0  0  0
   -5.5233   -0.1110  -22.6352 H   0  0  0  0  0  0  0  0  0  0  0  0
   -3.6075    1.3608  -22.9909 H   0  0  0  0  0  0  0  0  0  0  0  0
   -2.3613    2.3144  -21.0650 H   0  0  0  0  0  0  0  0  0  0  0  0
   -3.0727    1.7882  -18.7505 H   0  0  0  0  0  0  0  0  0  0  0  0
   -4.6140    0.6376  -17.2014 H   0  0  0  0  0  0  0  0  0  0  0  0
   -7.7418   -1.6585  -18.5932 H   0  0  0  0  0  0  0  0  0  0  0  0
   -6.9271   -1.5831  -22.1793 H   0  0  0  0  0  0  0  0  0  0  0  0
   -7.9719   -2.2491  -20.9145 H   0  0  0  0  0  0  0  0  0  0  0  0
   -7.6787    0.8052  -22.9787 H   0  0  0  0  0  0  0  0  0  0  0  0
   -6.8849    0.5779  -24.8709 H   0  0  0  0  0  0  0  0  0  0  0  0
   -6.6045   -0.7723  -26.9667 H   0  0  0  0  0  0  0  0  0  0  0  0
   -7.9807   -2.7494  -27.3063 H   0  0  0  0  0  0  0  0  0  0  0  0
   -9.9400   -2.8820  -22.5508 H   0  0  0  0  0  0  0  0  0  0  0  0
  -10.6922   -1.3149  -22.7423 H   0  0  0  0  0  0  0  0  0  0  0  0
  -11.9255   -2.0638  -24.7231 H   0  0  0  0  0  0  0  0  0  0  0  0
  -12.3029   -3.1195  -23.3659 H   0  0  0  0  0  0  0  0  0  0  0  0
  -11.8093   -4.4259  -25.4499 H   0  0  0  0  0  0  0  0  0  0  0  0
  -10.7206   -4.7966  -24.1193 H   0  0  0  0  0  0  0  0  0  0  0  0
  -11.3192   -4.9826  -27.3469 H   0  0  0  0  0  0  0  0  0  0  0  0
   -8.9391   -6.7639  -28.0918 H   0  0  0  0  0  0  0  0  0  0  0  0
  -10.6664   -6.8474  -28.7954 H   0  0  0  0  0  0  0  0  0  0  0  0
  1  2  2  0
  2  3  1  0
  3  4  2  0
  3  5  1  0
  5  6  1  0
  6  7  1  0
  7  8  1  0
  8  9  1  0
  9 10  2  0
 10 11  1  0
 11 12  2  0
 12 13  1  0
 13 14  2  0
 14 15  1  0
 15 16  1  0
 16 17  1  0
 17 18  2  0
 18 19  1  0
 19 20  2  0
 20 21  1  0
 21 22  1  0
 21 23  2  0
 23 24  1  0
 20 25  1  0
 19 26  1  0
 18 27  1  0
 16 28  1  0
 16 29  1  0
 15 30  1  0
 30 31  2  0
 30 32  1  0
 32 33  1  0
 33 34  2  0
 34 35  1  0
 35 36  2  0
 36 37  1  0
 37 38  2  0
 38 39  1  0
 39 40  2  0
 40 41  1  0
 41 42  2  0
 41 43  1  0
 40 44  1  0
 39 45  1  0
 38 46  1  0
 36 47  1  0
 34 48  1  0
 32 49  1  0
 32 50  1  0
 15 51  1  1
 13 52  1  0
 12 53  1  0
 11 54  1  0
  8 55  1  0
  8 56  1  0
  7 57  1  0
  7 58  1  0
  6 59  1  0
  6 60  1  0
  2 61  1  0
  1 62  1  0
  1 63  1  0
 10  5  1  0
 23 17  1  0
 42 33  1  0
 14  9  1  0
 42 37  1  0
M  CHG  1  15   1
M  END
>  <cnnaffinities>  (67) 
[6.03533, 6.10419, 6.01301, 6.20718]

>  <score>  (67) 
6.03533

>  <index>  (67) 
69

>  <Smiles>  (67) 
C(=C(C(=O)N1C(C(C(c2c1c(c(c(c2[N@@+](C(c1c(c(c(c(Cl)c1[H])[H])[H])[H])([H])[H])(C(=O)C(c1c(nc(c2c(c(c(c(c12)[H])[H])[H])[H])[H])[H])([H])[H])[H])[H])[H])[H])([H])[H])([H])[H])([H])[H])[H])([H])[H]

>  <h>  (67) 
<NA>

>  <Training>  (67) 
True

>  <Success>  (67) 
True

>  <enamine_searched>  (67) 
False

>  <enamine_id>  (67) 
nan

$$$$

     RDKit          3D

 52 54  0  0  0  0  0  0  0  0999 V2000
  -10.5541   -4.9063  -27.1509 C   0  0  0  0  0  0  0  0  0  0  0  0
   -9.9596   -6.2095  -26.6179 C   0  0  0  0  0  0  0  0  0  0  0  0
  -10.9786   -7.3215  -26.8387 C   0  0  0  0  0  0  0  0  0  0  0  0
  -11.8251   -7.1465  -26.1671 H   0  0  0  0  0  0  0  0  0  0  0  0
  -10.5701   -8.3172  -26.6342 H   0  0  0  0  0  0  0  0  0  0  0  0
  -11.3626   -7.3145  -27.8622 H   0  0  0  0  0  0  0  0  0  0  0  0
   -9.6080   -6.1855  -25.1250 C   0  0  0  0  0  0  0  0  0  0  0  0
   -8.4474   -5.2963  -24.6317 C   0  0  0  0  0  0  0  0  0  0  0  0
   -7.2879   -5.3636  -25.6399 C   0  0  0  0  0  0  0  0  0  0  0  0
   -6.9890   -6.4073  -25.7976 H   0  0  0  0  0  0  0  0  0  0  0  0
   -6.3970   -4.8181  -25.3149 H   0  0  0  0  0  0  0  0  0  0  0  0
   -7.5699   -4.9606  -26.6184 H   0  0  0  0  0  0  0  0  0  0  0  0
   -8.9295   -3.8289  -24.4002 C   0  0  0  0  0  0  0  0  0  0  0  0
   -8.8362   -3.4192  -22.9250 C   0  0  0  0  0  0  0  0  0  0  0  0
   -7.4969   -3.6969  -22.3936 N   0  0  0  0  0  0  0  0  0  0  0  0
   -6.7550   -2.8470  -21.6322 C   0  0  0  0  0  0  0  0  0  0  0  0
   -5.6318   -3.1361  -21.2435 O   0  0  0  0  0  0  0  0  0  0  0  0
   -7.4052   -1.5215  -21.2513 C   0  0  0  0  0  0  0  0  0  0  0  0
   -6.6223   -0.8487  -20.1792 C   0  0  0  0  0  0  0  0  0  0  0  0
   -6.9477   -1.0820  -18.8707 C   0  0  0  0  0  0  0  0  0  0  0  0
   -6.2830   -0.5837  -17.7964 N   0  0  0  0  0  0  0  0  0  0  0  0
   -5.2389    0.1681  -18.0602 C   0  0  0  0  0  0  0  0  0  0  0  0
   -4.7683    0.4691  -19.3692 C   0  0  0  0  0  0  0  0  0  0  0  0
   -3.6461    1.3051  -19.6016 C   0  0  0  0  0  0  0  0  0  0  0  0
   -3.2412    1.5872  -20.8761 C   0  0  0  0  0  0  0  0  0  0  0  0
   -3.9239    1.0318  -21.9835 C   0  0  0  0  0  0  0  0  0  0  0  0
   -5.0056    0.2096  -21.7884 C   0  0  0  0  0  0  0  0  0  0  0  0
   -5.4719   -0.0689  -20.4741 C   0  0  0  0  0  0  0  0  0  0  0  0
   -5.5060   -0.2273  -22.6497 H   0  0  0  0  0  0  0  0  0  0  0  0
   -3.5956    1.2781  -22.9915 H   0  0  0  0  0  0  0  0  0  0  0  0
   -2.3955    2.2491  -21.0486 H   0  0  0  0  0  0  0  0  0  0  0  0
   -3.1303    1.7306  -18.7409 H   0  0  0  0  0  0  0  0  0  0  0  0
   -4.7048    0.5867  -17.2047 H   0  0  0  0  0  0  0  0  0  0  0  0
   -7.8029   -1.7213  -18.6489 H   0  0  0  0  0  0  0  0  0  0  0  0
   -7.5065   -0.8902  -22.1420 H   0  0  0  0  0  0  0  0  0  0  0  0
   -8.4147   -1.7292  -20.8758 H   0  0  0  0  0  0  0  0  0  0  0  0
   -6.9498   -5.0381  -22.5707 C   0  0  0  0  0  0  0  0  0  0  0  0
   -7.9630   -5.9121  -23.2868 C   0  0  0  0  0  0  0  0  0  0  0  0
   -8.8213   -6.0750  -22.6165 H   0  0  0  0  0  0  0  0  0  0  0  0
   -7.5156   -6.8990  -23.4650 H   0  0  0  0  0  0  0  0  0  0  0  0
   -5.9929   -4.9887  -23.1166 H   0  0  0  0  0  0  0  0  0  0  0  0
   -6.7151   -5.4582  -21.5834 H   0  0  0  0  0  0  0  0  0  0  0  0
   -9.0627   -2.3534  -22.8401 H   0  0  0  0  0  0  0  0  0  0  0  0
   -9.5926   -3.9602  -22.3323 H   0  0  0  0  0  0  0  0  0  0  0  0
   -9.9794   -3.7100  -24.7048 H   0  0  0  0  0  0  0  0  0  0  0  0
   -8.3491   -3.1156  -25.0091 H   0  0  0  0  0  0  0  0  0  0  0  0
  -10.5086   -5.8770  -24.5709 H   0  0  0  0  0  0  0  0  0  0  0  0
   -9.3691   -7.2237  -24.8466 H   0  0  0  0  0  0  0  0  0  0  0  0
   -9.0548   -6.4578  -27.1818 H   0  0  0  0  0  0  0  0  0  0  0  0
   -9.8896   -4.0384  -27.0846 H   0  0  0  0  0  0  0  0  0  0  0  0
  -11.4629   -4.6671  -26.5848 H   0  0  0  0  0  0  0  0  0  0  0  0
  -10.8466   -5.0337  -28.2007 H   0  0  0  0  0  0  0  0  0  0  0  0
  1  2  1  0
  2  3  1  0
  3  4  1  0
  3  5  1  0
  3  6  1  0
  2  7  1  0
  7  8  1  0
  8  9  1  0
  9 10  1  0
  9 11  1  0
  9 12  1  0
  8 13  1  0
 13 14  1  0
 14 15  1  0
 15 16  1  0
 16 17  2  0
 16 18  1  0
 18 19  1  0
 19 20  2  0
 20 21  1  0
 21 22  2  0
 22 23  1  0
 23 24  2  0
 24 25  1  0
 25 26  2  0
 26 27  1  0
 27 28  2  0
 27 29  1  0
 26 30  1  0
 25 31  1  0
 24 32  1  0
 22 33  1  0
 20 34  1  0
 18 35  1  0
 18 36  1  0
 15 37  1  0
 37 38  1  0
 38 39  1  0
 38 40  1  0
 37 41  1  0
 37 42  1  0
 14 43  1  0
 14 44  1  0
 13 45  1  0
 13 46  1  0
  7 47  1  0
  7 48  1  0
  2 49  1  0
  1 50  1  0
  1 51  1  0
  1 52  1  0
 38  8  1  0
 28 19  1  0
 28 23  1  0
M  END
>  <cnnaffinities>  (68) 
[5.31754, 5.30956, 4.8499, 5.17492, 5.29672, 5.29719, 5.39676, 5.38971, 4.9803, 5.36597, 5.03661, 5.03784, 4.95816, 4.96087, 4.94228, 4.94229, 4.94235, 5.38239, 4.97967, 5.04991, 5.23053]

>  <score>  (68) 
5.31754

>  <index>  (68) 
70

>  <Smiles>  (68) 
C(C(C([H])([H])[H])(C(C1(C([H])([H])[H])C(C(N(C(=O)C(c2c(nc(c3c(c(c(c(c23)[H])[H])[H])[H])[H])[H])([H])[H])C(C1([H])[H])([H])[H])([H])[H])([H])[H])([H])[H])[H])([H])([H])[H]

>  <h>  (68) 
<NA>

>  <Training>  (68) 
True

>  <Success>  (68) 
True

>  <enamine_searched>  (68) 
False

>  <enamine_id>  (68) 
nan

$$$$

     RDKit          3D

 50 54  0  0  0  0  0  0  0  0999 V2000
   -8.3819   -4.0235  -23.6753 C   0  0  0  0  0  0  0  0  0  0  0  0
   -8.5921   -3.0992  -22.4839 C   0  0  1  0  0  0  0  0  0  0  0  0
   -7.2597   -2.5191  -21.9984 C   0  0  0  0  0  0  0  0  0  0  0  0
   -7.6625   -1.3506  -21.2528 N   0  0  0  0  0  0  0  0  0  0  0  0
   -6.8756   -0.8031  -20.2096 C   0  0  0  0  0  0  0  0  0  0  0  0
   -7.1865   -1.0548  -18.8968 C   0  0  0  0  0  0  0  0  0  0  0  0
   -6.4602   -0.6199  -17.8345 N   0  0  0  0  0  0  0  0  0  0  0  0
   -5.3890    0.0947  -18.0863 C   0  0  0  0  0  0  0  0  0  0  0  0
   -4.9456    0.4282  -19.3974 C   0  0  0  0  0  0  0  0  0  0  0  0
   -3.7936    1.2273  -19.6226 C   0  0  0  0  0  0  0  0  0  0  0  0
   -3.3880    1.5109  -20.8974 C   0  0  0  0  0  0  0  0  0  0  0  0
   -4.1081    1.0063  -22.0029 C   0  0  0  0  0  0  0  0  0  0  0  0
   -5.2335    0.2423  -21.8118 C   0  0  0  0  0  0  0  0  0  0  0  0
   -5.6896   -0.0552  -20.4998 C   0  0  0  0  0  0  0  0  0  0  0  0
   -5.7876   -0.1276  -22.6701 H   0  0  0  0  0  0  0  0  0  0  0  0
   -3.7714    1.2292  -23.0113 H   0  0  0  0  0  0  0  0  0  0  0  0
   -2.5070    2.1237  -21.0711 H   0  0  0  0  0  0  0  0  0  0  0  0
   -3.2453    1.6077  -18.7644 H   0  0  0  0  0  0  0  0  0  0  0  0
   -4.8062    0.4456  -17.2316 H   0  0  0  0  0  0  0  0  0  0  0  0
   -8.0629   -1.6531  -18.6583 H   0  0  0  0  0  0  0  0  0  0  0  0
   -8.9527   -0.9361  -21.5263 C   0  0  0  0  0  0  0  0  0  0  0  0
   -9.4848    0.0145  -21.0041 O   0  0  0  0  0  0  0  0  0  0  0  0
   -9.5418   -1.8744  -22.6323 C   0  0  1  0  0  0  0  0  0  0  0  0
   -9.3789   -1.2102  -24.0265 C   0  0  0  0  0  0  0  0  0  0  0  0
  -10.3184   -0.1283  -24.2499 N   0  0  0  0  0  0  0  0  0  0  0  0
   -9.9024    1.1390  -24.8100 C   0  0  0  0  0  0  0  0  0  0  0  0
  -10.0093    2.2205  -23.8193 C   0  0  0  0  0  0  0  0  0  0  0  0
  -10.1468    3.0510  -23.0299 N   0  0  0  0  0  0  0  0  0  0  0  0
  -10.5416    1.3744  -25.6615 H   0  0  0  0  0  0  0  0  0  0  0  0
   -8.8703    1.0569  -25.1546 H   0  0  0  0  0  0  0  0  0  0  0  0
  -11.6426   -0.2483  -23.9511 C   0  0  0  0  0  0  0  0  0  0  0  0
  -12.4817    0.5523  -24.3420 O   0  0  0  0  0  0  0  0  0  0  0  0
  -12.0082   -1.3624  -23.0508 C   0  0  0  0  0  0  0  0  0  0  0  0
  -13.3682   -1.4800  -22.7607 C   0  0  0  0  0  0  0  0  0  0  0  0
  -13.8060   -2.4020  -21.8409 C   0  0  0  0  0  0  0  0  0  0  0  0
  -12.8327   -3.2071  -21.2614 C   0  0  0  0  0  0  0  0  0  0  0  0
  -13.2305   -4.0577  -20.3049 F   0  0  0  0  0  0  0  0  0  0  0  0
  -11.4923   -3.1448  -21.5901 C   0  0  0  0  0  0  0  0  0  0  0  0
  -11.0266   -2.1545  -22.4487 C   0  0  0  0  0  0  0  0  0  0  0  0
  -10.7963   -3.8373  -21.1431 H   0  0  0  0  0  0  0  0  0  0  0  0
  -14.8516   -2.4827  -21.5624 H   0  0  0  0  0  0  0  0  0  0  0  0
  -14.0485   -0.7861  -23.2463 H   0  0  0  0  0  0  0  0  0  0  0  0
   -9.5116   -1.9771  -24.8027 H   0  0  0  0  0  0  0  0  0  0  0  0
   -8.3706   -0.7994  -24.1186 H   0  0  0  0  0  0  0  0  0  0  0  0
   -6.7169   -3.2192  -21.3552 H   0  0  0  0  0  0  0  0  0  0  0  0
   -6.6034   -2.2689  -22.8491 H   0  0  0  0  0  0  0  0  0  0  0  0
   -8.9798   -3.6919  -21.6513 H   0  0  0  0  0  0  0  0  0  0  0  0
   -9.3087   -4.5049  -24.0038 H   0  0  0  0  0  0  0  0  0  0  0  0
   -7.9491   -3.4812  -24.5266 H   0  0  0  0  0  0  0  0  0  0  0  0
   -7.6679   -4.8092  -23.3956 H   0  0  0  0  0  0  0  0  0  0  0  0
  1  2  1  0
  2  3  1  0
  3  4  1  0
  4  5  1  0
  5  6  2  0
  6  7  1  0
  7  8  2  0
  8  9  1  0
  9 10  2  0
 10 11  1  0
 11 12  2  0
 12 13  1  0
 13 14  2  0
 13 15  1  0
 12 16  1  0
 11 17  1  0
 10 18  1  0
  8 19  1  0
  6 20  1  0
  4 21  1  0
 21 22  2  0
 21 23  1  0
 23 24  1  6
 24 25  1  0
 25 26  1  0
 26 27  1  0
 27 28  3  0
 26 29  1  0
 26 30  1  0
 25 31  1  0
 31 32  2  0
 31 33  1  0
 33 34  2  0
 34 35  1  0
 35 36  2  0
 36 37  1  0
 36 38  1  0
 38 39  2  0
 38 40  1  0
 35 41  1  0
 34 42  1  0
 24 43  1  0
 24 44  1  0
  3 45  1  0
  3 46  1  0
  2 47  1  1
  1 48  1  0
  1 49  1  0
  1 50  1  0
 23  2  1  0
 39 33  1  0
 14  5  1  0
 39 23  1  0
 14  9  1  0
M  END
>  <cnnaffinities>  (69) 
[6.45228]

>  <score>  (69) 
6.45228

>  <index>  (69) 
71

>  <Smiles>  (69) 
C([C@]1(C(N(c2c(nc(c3c(c(c(c(c23)[H])[H])[H])[H])[H])[H])C(=O)[C@]21C(N(C(C#N)([H])[H])C(=O)c1c(c(c(F)c(c21)[H])[H])[H])([H])[H])([H])[H])[H])([H])([H])[H]

>  <h>  (69) 
<NA>

>  <Training>  (69) 
True

>  <Success>  (69) 
True

>  <enamine_searched>  (69) 
False

>  <enamine_id>  (69) 
nan

$$$$

     RDKit          3D

 41 44  0  0  0  0  0  0  0  0999 V2000
   -8.6552    0.7030  -21.2778 O   0  0  0  0  0  0  0  0  0  0  0  0
   -8.6395   -0.4437  -21.7006 C   0  0  0  0  0  0  0  0  0  0  0  0
   -7.5214   -1.4109  -21.2833 C   0  0  0  0  0  0  0  0  0  0  0  0
   -6.6484   -0.8446  -20.1950 C   0  0  0  0  0  0  0  0  0  0  0  0
   -6.9584   -1.0659  -18.8823 C   0  0  0  0  0  0  0  0  0  0  0  0
   -6.2856   -0.5735  -17.8056 N   0  0  0  0  0  0  0  0  0  0  0  0
   -5.2447    0.1875  -18.0657 C   0  0  0  0  0  0  0  0  0  0  0  0
   -4.7992    0.5096  -19.3767 C   0  0  0  0  0  0  0  0  0  0  0  0
   -3.6634    1.3305  -19.6024 C   0  0  0  0  0  0  0  0  0  0  0  0
   -3.2628    1.6209  -20.8781 C   0  0  0  0  0  0  0  0  0  0  0  0
   -3.9841    1.1140  -21.9793 C   0  0  0  0  0  0  0  0  0  0  0  0
   -5.0923    0.3284  -21.7873 C   0  0  0  0  0  0  0  0  0  0  0  0
   -5.5250   -0.0073  -20.4772 C   0  0  0  0  0  0  0  0  0  0  0  0
   -5.6451   -0.0376  -22.6461 H   0  0  0  0  0  0  0  0  0  0  0  0
   -3.6520    1.3507  -22.9865 H   0  0  0  0  0  0  0  0  0  0  0  0
   -2.3962    2.2522  -21.0478 H   0  0  0  0  0  0  0  0  0  0  0  0
   -3.1237    1.7211  -18.7431 H   0  0  0  0  0  0  0  0  0  0  0  0
   -4.6977    0.5868  -17.2108 H   0  0  0  0  0  0  0  0  0  0  0  0
   -7.8154   -1.6952  -18.6366 H   0  0  0  0  0  0  0  0  0  0  0  0
   -6.9203   -1.6692  -22.1634 H   0  0  0  0  0  0  0  0  0  0  0  0
   -7.9819   -2.3460  -20.9312 H   0  0  0  0  0  0  0  0  0  0  0  0
   -9.6213   -0.9370  -22.5267 N   0  0  0  0  0  0  0  0  0  0  0  0
   -9.5826   -2.2395  -23.2062 C   0  0  0  0  0  0  0  0  0  0  0  0
  -10.3181   -3.3440  -22.4320 C   0  0  0  0  0  0  0  0  0  0  0  0
  -11.5432   -2.7729  -21.6921 C   0  0  0  0  0  0  0  0  0  0  0  0
  -12.4375   -1.8308  -22.4788 C   0  0  0  0  0  0  0  0  0  0  0  0
  -14.1507   -2.0928  -22.6402 S   0  0  0  0  0  0  0  0  0  0  0  0
  -14.3751   -0.5531  -23.3848 C   0  0  0  0  0  0  0  0  0  0  0  0
  -13.2023    0.1218  -23.5031 C   0  0  0  0  0  0  0  0  0  0  0  0
  -12.0752   -0.6085  -22.9777 C   0  0  0  0  0  0  0  0  0  0  0  0
  -10.6821   -0.0068  -22.9078 C   0  0  0  0  0  0  0  0  0  0  0  0
  -10.4214    0.4569  -23.8736 H   0  0  0  0  0  0  0  0  0  0  0  0
  -10.6842    0.8121  -22.1773 H   0  0  0  0  0  0  0  0  0  0  0  0
  -13.1669    1.1185  -23.9399 H   0  0  0  0  0  0  0  0  0  0  0  0
  -15.3640   -0.1718  -23.6171 H   0  0  0  0  0  0  0  0  0  0  0  0
  -11.1190   -2.1578  -20.8909 H   0  0  0  0  0  0  0  0  0  0  0  0
  -12.1342   -3.5529  -21.2047 H   0  0  0  0  0  0  0  0  0  0  0  0
   -9.6605   -3.8057  -21.6847 H   0  0  0  0  0  0  0  0  0  0  0  0
  -10.5823   -4.1523  -23.1268 H   0  0  0  0  0  0  0  0  0  0  0  0
  -10.1164   -2.1202  -24.1572 H   0  0  0  0  0  0  0  0  0  0  0  0
   -8.5490   -2.5412  -23.4311 H   0  0  0  0  0  0  0  0  0  0  0  0
  1  2  2  0
  2  3  1  0
  3  4  1  0
  4  5  2  0
  5  6  1  0
  6  7  2  0
  7  8  1  0
  8  9  2  0
  9 10  1  0
 10 11  2  0
 11 12  1  0
 12 13  2  0
 12 14  1  0
 11 15  1  0
 10 16  1  0
  9 17  1  0
  7 18  1  0
  5 19  1  0
  3 20  1  0
  3 21  1  0
  2 22  1  0
 22 23  1  0
 23 24  1  0
 24 25  1  0
 25 26  1  0
 26 27  1  0
 27 28  1  0
 28 29  2  0
 29 30  1  0
 30 31  1  0
 31 32  1  0
 31 33  1  0
 29 34  1  0
 28 35  1  0
 25 36  1  0
 25 37  1  0
 24 38  1  0
 24 39  1  0
 23 40  1  0
 23 41  1  0
 13  4  1  0
 31 22  1  0
 13  8  1  0
 30 26  2  0
M  END
>  <cnnaffinities>  (70) 
[5.62526, 5.41941, 5.3597, 5.23042, 5.20166, 5.07236, 5.15493, 5.11482, 5.01826, 5.2796]

>  <score>  (70) 
5.62526

>  <index>  (70) 
72

>  <Smiles>  (70) 
O=C(C(c1c(nc(c2c(c(c(c(c12)[H])[H])[H])[H])[H])[H])([H])[H])N1C(C(C(c2sc(c(c2C1([H])[H])[H])[H])([H])[H])([H])[H])([H])[H]

>  <h>  (70) 
<NA>

>  <Training>  (70) 
True

>  <Success>  (70) 
True

>  <enamine_searched>  (70) 
False

>  <enamine_id>  (70) 
nan

$$$$

     RDKit          3D

 50 53  0  0  0  0  0  0  0  0999 V2000
   -8.6955    0.6361  -21.1861 O   0  0  0  0  0  0  0  0  0  0  0  0
   -8.2375   -0.2399  -21.9000 C   0  0  0  0  0  0  0  0  0  0  0  0
   -7.4468   -1.3980  -21.2719 C   0  0  0  0  0  0  0  0  0  0  0  0
   -6.5786   -0.8642  -20.1675 C   0  0  0  0  0  0  0  0  0  0  0  0
   -6.9028   -1.0693  -18.8540 C   0  0  0  0  0  0  0  0  0  0  0  0
   -6.2315   -0.5602  -17.7856 N   0  0  0  0  0  0  0  0  0  0  0  0
   -5.1931    0.1973  -18.0542 C   0  0  0  0  0  0  0  0  0  0  0  0
   -4.7439    0.5061  -19.3695 C   0  0  0  0  0  0  0  0  0  0  0  0
   -3.6261    1.3498  -19.6049 C   0  0  0  0  0  0  0  0  0  0  0  0
   -3.2311    1.6460  -20.8819 C   0  0  0  0  0  0  0  0  0  0  0  0
   -3.9366    1.1082  -21.9794 C   0  0  0  0  0  0  0  0  0  0  0  0
   -5.0169    0.2856  -21.7790 C   0  0  0  0  0  0  0  0  0  0  0  0
   -5.4547   -0.0358  -20.4623 C   0  0  0  0  0  0  0  0  0  0  0  0
   -5.5429   -0.1179  -22.6384 H   0  0  0  0  0  0  0  0  0  0  0  0
   -3.6208    1.3563  -22.9892 H   0  0  0  0  0  0  0  0  0  0  0  0
   -2.3804    2.2982  -21.0590 H   0  0  0  0  0  0  0  0  0  0  0  0
   -3.0950    1.7632  -18.7532 H   0  0  0  0  0  0  0  0  0  0  0  0
   -4.6463    0.6174  -17.2081 H   0  0  0  0  0  0  0  0  0  0  0  0
   -7.7708   -1.6816  -18.6106 H   0  0  0  0  0  0  0  0  0  0  0  0
   -8.1630   -2.1369  -20.8814 H   0  0  0  0  0  0  0  0  0  0  0  0
   -6.8328   -1.8934  -22.0323 H   0  0  0  0  0  0  0  0  0  0  0  0
   -8.3558   -0.2207  -23.2729 N   0  0  0  0  0  0  0  0  0  0  0  0
   -8.3821   -1.3945  -24.1469 C   0  0  0  0  0  0  0  0  0  0  0  0
   -7.3026   -1.3203  -25.2261 C   0  0  0  0  0  0  0  0  0  0  0  0
   -7.4129   -0.0005  -25.9896 C   0  0  0  0  0  0  0  0  0  0  0  0
   -7.3602    1.1833  -25.0227 C   0  0  0  0  0  0  0  0  0  0  0  0
   -8.4411    1.0792  -23.9461 C   0  0  1  0  0  0  0  0  0  0  0  0
   -9.8246    1.3632  -24.5494 C   0  0  0  0  0  0  0  0  0  0  0  0
  -10.8778    1.4959  -23.4753 C   0  0  0  0  0  0  0  0  0  0  0  0
  -10.9207    2.6939  -22.7522 C   0  0  0  0  0  0  0  0  0  0  0  0
  -11.9239    2.9310  -21.8218 C   0  0  0  0  0  0  0  0  0  0  0  0
  -12.8799    1.9523  -21.5906 C   0  0  0  0  0  0  0  0  0  0  0  0
  -12.7871    0.7171  -22.2318 C   0  0  0  0  0  0  0  0  0  0  0  0
  -11.7756    0.4700  -23.1616 C   0  0  0  0  0  0  0  0  0  0  0  0
  -11.6951   -0.5163  -23.6335 H   0  0  0  0  0  0  0  0  0  0  0  0
  -13.5069   -0.0599  -21.9942 H   0  0  0  0  0  0  0  0  0  0  0  0
  -13.7104    2.1670  -20.9254 H   0  0  0  0  0  0  0  0  0  0  0  0
  -11.9344    3.8751  -21.2759 H   0  0  0  0  0  0  0  0  0  0  0  0
  -10.1567    3.4535  -22.9338 H   0  0  0  0  0  0  0  0  0  0  0  0
  -10.0890    0.5908  -25.2803 H   0  0  0  0  0  0  0  0  0  0  0  0
   -9.7325    2.3022  -25.1215 H   0  0  0  0  0  0  0  0  0  0  0  0
   -8.2630    1.8309  -23.1697 H   0  0  0  0  0  0  0  0  0  0  0  0
   -7.4799    2.1362  -25.5504 H   0  0  0  0  0  0  0  0  0  0  0  0
   -6.3767    1.2170  -24.5368 H   0  0  0  0  0  0  0  0  0  0  0  0
   -6.6101    0.0896  -26.7280 H   0  0  0  0  0  0  0  0  0  0  0  0
   -8.3564    0.0178  -26.5537 H   0  0  0  0  0  0  0  0  0  0  0  0
   -7.4060   -2.1744  -25.9055 H   0  0  0  0  0  0  0  0  0  0  0  0
   -6.3048   -1.3980  -24.7719 H   0  0  0  0  0  0  0  0  0  0  0  0
   -9.3618   -1.4520  -24.6434 H   0  0  0  0  0  0  0  0  0  0  0  0
   -8.3052   -2.3109  -23.5547 H   0  0  0  0  0  0  0  0  0  0  0  0
  1  2  2  0
  2  3  1  0
  3  4  1  0
  4  5  2  0
  5  6  1  0
  6  7  2  0
  7  8  1  0
  8  9  2  0
  9 10  1  0
 10 11  2  0
 11 12  1  0
 12 13  2  0
 12 14  1  0
 11 15  1  0
 10 16  1  0
  9 17  1  0
  7 18  1  0
  5 19  1  0
  3 20  1  0
  3 21  1  0
  2 22  1  0
 22 23  1  0
 23 24  1  0
 24 25  1  0
 25 26  1  0
 26 27  1  0
 27 28  1  0
 28 29  1  0
 29 30  2  0
 30 31  1  0
 31 32  2  0
 32 33  1  0
 33 34  2  0
 34 35  1  0
 33 36  1  0
 32 37  1  0
 31 38  1  0
 30 39  1  0
 28 40  1  0
 28 41  1  0
 27 42  1  1
 26 43  1  0
 26 44  1  0
 25 45  1  0
 25 46  1  0
 24 47  1  0
 24 48  1  0
 23 49  1  0
 23 50  1  0
 13  4  1  0
 27 22  1  0
 34 29  1  0
 13  8  1  0
M  END
>  <cnnaffinities>  (71) 
[5.35661, 5.30727, 5.3072, 5.4658, 5.30139, 5.29787, 5.2274, 5.2253, 5.44088]

>  <score>  (71) 
5.35661

>  <index>  (71) 
73

>  <Smiles>  (71) 
O=C(C(c1c(nc(c2c(c(c(c(c12)[H])[H])[H])[H])[H])[H])([H])[H])N1C(C(C(C([C@]1(C(c1c(c(c(c(c1[H])[H])[H])[H])[H])([H])[H])[H])([H])[H])([H])[H])([H])[H])([H])[H]

>  <h>  (71) 
<NA>

>  <Training>  (71) 
True

>  <Success>  (71) 
True

>  <enamine_searched>  (71) 
False

>  <enamine_id>  (71) 
nan

$$$$

     RDKit          3D

 43 47  0  0  0  0  0  0  0  0999 V2000
   -9.4291   -0.4490  -20.9916 O   0  0  0  0  0  0  0  0  0  0  0  0
   -8.7468   -1.3628  -21.3810 C   0  0  0  0  0  0  0  0  0  0  0  0
   -9.1376   -2.4504  -22.1143 N   0  0  0  0  0  0  0  0  0  0  0  0
   -8.0405   -3.1517  -22.7326 C   0  0  1  0  0  0  0  0  0  0  0  0
   -8.1058   -4.6935  -22.6965 C   0  0  0  0  0  0  0  0  0  0  0  0
   -8.2273   -4.7392  -24.2534 C   0  0  2  0  0  0  0  0  0  0  0  0
   -7.1816   -5.5468  -24.9583 C   0  0  0  0  0  0  0  0  0  0  0  0
   -5.8248   -5.3054  -24.7124 C   0  0  0  0  0  0  0  0  0  0  0  0
   -4.8367   -6.0462  -25.3494 C   0  0  0  0  0  0  0  0  0  0  0  0
   -5.1879   -7.0520  -26.2483 C   0  0  0  0  0  0  0  0  0  0  0  0
   -6.5280   -7.3116  -26.5038 C   0  0  0  0  0  0  0  0  0  0  0  0
   -7.5050   -6.5629  -25.8585 C   0  0  0  0  0  0  0  0  0  0  0  0
   -9.1750   -6.9425  -26.2140 Cl  0  0  0  0  0  0  0  0  0  0  0  0
   -6.8349   -8.0848  -27.2012 H   0  0  0  0  0  0  0  0  0  0  0  0
   -4.4199   -7.6331  -26.7512 H   0  0  0  0  0  0  0  0  0  0  0  0
   -3.7926   -5.8328  -25.1402 H   0  0  0  0  0  0  0  0  0  0  0  0
   -5.5476   -4.5210  -24.0048 H   0  0  0  0  0  0  0  0  0  0  0  0
   -8.0355   -3.1881  -24.2895 C   0  0  0  0  0  0  0  0  0  0  0  0
   -8.8558   -2.6241  -24.7479 H   0  0  0  0  0  0  0  0  0  0  0  0
   -7.0967   -2.8525  -24.7482 H   0  0  0  0  0  0  0  0  0  0  0  0
   -9.2292   -5.0371  -24.5762 H   0  0  0  0  0  0  0  0  0  0  0  0
   -8.9691   -5.0630  -22.1398 H   0  0  0  0  0  0  0  0  0  0  0  0
   -7.1965   -5.1548  -22.2933 H   0  0  0  0  0  0  0  0  0  0  0  0
   -6.8429   -2.5182  -22.0450 C   0  0  0  0  0  0  0  0  0  0  0  0
   -5.6815   -2.8116  -22.2102 O   0  0  0  0  0  0  0  0  0  0  0  0
   -7.3437   -1.5144  -21.2039 N   0  0  0  0  0  0  0  0  0  0  0  0
   -6.5862   -0.8572  -20.1854 C   0  0  0  0  0  0  0  0  0  0  0  0
   -6.9102   -1.0603  -18.8662 C   0  0  0  0  0  0  0  0  0  0  0  0
   -6.2198   -0.5451  -17.8190 N   0  0  0  0  0  0  0  0  0  0  0  0
   -5.1806    0.2056  -18.0927 C   0  0  0  0  0  0  0  0  0  0  0  0
   -4.7475    0.5230  -19.4082 C   0  0  0  0  0  0  0  0  0  0  0  0
   -3.6175    1.3557  -19.6357 C   0  0  0  0  0  0  0  0  0  0  0  0
   -3.2274    1.6578  -20.9099 C   0  0  0  0  0  0  0  0  0  0  0  0
   -3.9561    1.1428  -22.0059 C   0  0  0  0  0  0  0  0  0  0  0  0
   -5.0498    0.3352  -21.8118 C   0  0  0  0  0  0  0  0  0  0  0  0
   -5.4705   -0.0119  -20.4974 C   0  0  0  0  0  0  0  0  0  0  0  0
   -5.5961   -0.0540  -22.6649 H   0  0  0  0  0  0  0  0  0  0  0  0
   -3.6452    1.3928  -23.0148 H   0  0  0  0  0  0  0  0  0  0  0  0
   -2.3690    2.3020  -21.0888 H   0  0  0  0  0  0  0  0  0  0  0  0
   -3.0820    1.7532  -18.7783 H   0  0  0  0  0  0  0  0  0  0  0  0
   -4.6281    0.6079  -17.2446 H   0  0  0  0  0  0  0  0  0  0  0  0
   -7.7570   -1.6874  -18.5996 H   0  0  0  0  0  0  0  0  0  0  0  0
  -10.1014   -2.6131  -22.3603 H   0  0  0  0  0  0  0  0  0  0  0  0
  1  2  2  0
  2  3  1  0
  4  3  1  6
  4  5  1  0
  5  6  1  0
  6  7  1  0
  7  8  2  0
  8  9  1  0
  9 10  2  0
 10 11  1  0
 11 12  2  0
 12 13  1  0
 11 14  1  0
 10 15  1  0
  9 16  1  0
  8 17  1  0
  6 18  1  0
 18 19  1  0
 18 20  1  0
  6 21  1  1
  5 22  1  0
  5 23  1  0
  4 24  1  0
 24 25  2  0
 24 26  1  0
 26 27  1  0
 27 28  2  0
 28 29  1  0
 29 30  2  0
 30 31  1  0
 31 32  2  0
 32 33  1  0
 33 34  2  0
 34 35  1  0
 35 36  2  0
 35 37  1  0
 34 38  1  0
 33 39  1  0
 32 40  1  0
 30 41  1  0
 28 42  1  0
  3 43  1  0
 26  2  1  0
 36 27  1  0
 18  4  1  0
 36 31  1  0
 12  7  1  0
M  END
>  <cnnaffinities>  (72) 
[5.68884, 5.90886, 5.74847]

>  <score>  (72) 
5.68884

>  <index>  (72) 
74

>  <Smiles>  (72) 
O=C1N([C@]2(C([C@](c3c(c(c(c(c3Cl)[H])[H])[H])[H])(C2([H])[H])[H])([H])[H])C(=O)N1c1c(nc(c2c(c(c(c(c12)[H])[H])[H])[H])[H])[H])[H]

>  <h>  (72) 
<NA>

>  <Training>  (72) 
True

>  <Success>  (72) 
True

>  <enamine_searched>  (72) 
False

>  <enamine_id>  (72) 
nan

$$$$

     RDKit          3D

 66 71  0  0  0  0  0  0  0  0999 V2000
   -7.4591    3.4761  -21.8643 C   0  0  0  0  0  0  0  0  0  0  0  0
   -8.5156    2.9798  -22.7359 N   0  0  0  0  0  0  0  0  0  0  0  0
   -8.1306    2.2087  -23.7941 C   0  0  0  0  0  0  0  0  0  0  0  0
   -6.9564    1.9401  -24.0071 O   0  0  0  0  0  0  0  0  0  0  0  0
   -9.2291    1.6625  -24.7034 C   0  0  0  0  0  0  0  0  0  0  0  0
   -9.7881    0.4626  -24.1172 N   0  0  0  0  0  0  0  0  0  0  0  0
   -8.9687   -0.7402  -24.0679 C   0  0  0  0  0  0  0  0  0  0  0  0
   -9.2241   -1.5592  -22.7755 C   0  0  2  0  0  0  0  0  0  0  0  0
   -8.6340   -0.7907  -21.5671 C   0  0  0  0  0  0  0  0  0  0  0  0
   -9.1017    0.1929  -21.0299 O   0  0  0  0  0  0  0  0  0  0  0  0
   -7.4489   -1.3906  -21.2010 N   0  0  0  0  0  0  0  0  0  0  0  0
   -6.6324   -0.8248  -20.1866 C   0  0  0  0  0  0  0  0  0  0  0  0
   -6.9448   -1.0514  -18.8698 C   0  0  0  0  0  0  0  0  0  0  0  0
   -6.2472   -0.5679  -17.8125 N   0  0  0  0  0  0  0  0  0  0  0  0
   -5.2038    0.1831  -18.0825 C   0  0  0  0  0  0  0  0  0  0  0  0
   -4.7720    0.5119  -19.3996 C   0  0  0  0  0  0  0  0  0  0  0  0
   -3.6458    1.3493  -19.6282 C   0  0  0  0  0  0  0  0  0  0  0  0
   -3.2585    1.6566  -20.9041 C   0  0  0  0  0  0  0  0  0  0  0  0
   -3.9786    1.1477  -22.0068 C   0  0  0  0  0  0  0  0  0  0  0  0
   -5.0798    0.3455  -21.8144 C   0  0  0  0  0  0  0  0  0  0  0  0
   -5.5013   -0.0034  -20.4997 C   0  0  0  0  0  0  0  0  0  0  0  0
   -5.6428    0.0028  -22.6775 H   0  0  0  0  0  0  0  0  0  0  0  0
   -3.6610    1.3969  -23.0156 H   0  0  0  0  0  0  0  0  0  0  0  0
   -2.3982    2.2973  -21.0763 H   0  0  0  0  0  0  0  0  0  0  0  0
   -3.1095    1.7407  -18.7673 H   0  0  0  0  0  0  0  0  0  0  0  0
   -4.6370    0.5780  -17.2376 H   0  0  0  0  0  0  0  0  0  0  0  0
   -7.8091   -1.6659  -18.6317 H   0  0  0  0  0  0  0  0  0  0  0  0
   -7.0989   -2.5442  -22.0101 C   0  0  0  0  0  0  0  0  0  0  0  0
   -8.4017   -2.8812  -22.7537 C   0  0  2  0  0  0  0  0  0  0  0  0
   -8.1197   -3.5609  -24.0961 C   0  0  0  0  0  0  0  0  0  0  0  0
   -9.3321   -3.9392  -24.7751 N   0  0  0  0  0  0  0  0  0  0  0  0
   -9.3548   -4.5568  -25.9945 C   0  0  0  0  0  0  0  0  0  0  0  0
   -8.1792   -4.8575  -26.7310 C   0  0  0  0  0  0  0  0  0  0  0  0
   -8.2185   -5.4187  -27.9298 N   0  0  0  0  0  0  0  0  0  0  0  0
   -9.4283   -5.7196  -28.4096 C   0  0  0  0  0  0  0  0  0  0  0  0
  -10.5762   -5.4531  -27.6782 C   0  0  0  0  0  0  0  0  0  0  0  0
  -10.5577   -4.8636  -26.4836 N   0  0  0  0  0  0  0  0  0  0  0  0
  -11.5556   -5.7242  -28.0635 H   0  0  0  0  0  0  0  0  0  0  0  0
   -9.4742   -6.1818  -29.3917 H   0  0  0  0  0  0  0  0  0  0  0  0
   -7.1910   -4.6377  -26.3369 H   0  0  0  0  0  0  0  0  0  0  0  0
  -10.2332   -3.8332  -24.3283 H   0  0  0  0  0  0  0  0  0  0  0  0
   -7.4986   -4.4510  -23.9223 H   0  0  0  0  0  0  0  0  0  0  0  0
   -7.5328   -2.8864  -24.7404 H   0  0  0  0  0  0  0  0  0  0  0  0
   -8.9588   -3.5996  -22.1451 H   0  0  0  0  0  0  0  0  0  0  0  0
   -6.2905   -2.3115  -22.7206 H   0  0  0  0  0  0  0  0  0  0  0  0
   -6.7603   -3.3767  -21.3856 H   0  0  0  0  0  0  0  0  0  0  0  0
  -10.7268   -1.7241  -22.6104 C   0  0  0  0  0  0  0  0  0  0  0  0
  -11.2708   -2.7192  -21.7888 C   0  0  0  0  0  0  0  0  0  0  0  0
  -12.6351   -2.7520  -21.5555 C   0  0  0  0  0  0  0  0  0  0  0  0
  -13.3013   -3.8532  -20.4000 Cl  0  0  0  0  0  0  0  0  0  0  0  0
  -13.5172   -1.8625  -22.1611 C   0  0  0  0  0  0  0  0  0  0  0  0
  -12.9902   -0.8753  -22.9595 C   0  0  0  0  0  0  0  0  0  0  0  0
  -11.6149   -0.7812  -23.1477 C   0  0  0  0  0  0  0  0  0  0  0  0
  -11.1259    0.4356  -23.8600 C   0  0  0  0  0  0  0  0  0  0  0  0
  -11.8784    1.3522  -24.1639 O   0  0  0  0  0  0  0  0  0  0  0  0
  -13.6114   -0.1194  -23.4231 H   0  0  0  0  0  0  0  0  0  0  0  0
  -14.5804   -1.9254  -21.9599 H   0  0  0  0  0  0  0  0  0  0  0  0
  -10.6466   -3.4442  -21.2791 H   0  0  0  0  0  0  0  0  0  0  0  0
   -7.9173   -0.4422  -24.1211 H   0  0  0  0  0  0  0  0  0  0  0  0
   -9.1828   -1.3740  -24.9381 H   0  0  0  0  0  0  0  0  0  0  0  0
  -10.0550    2.3635  -24.8497 H   0  0  0  0  0  0  0  0  0  0  0  0
   -8.7979    1.4285  -25.6844 H   0  0  0  0  0  0  0  0  0  0  0  0
   -9.4406    2.8530  -22.3443 H   0  0  0  0  0  0  0  0  0  0  0  0
   -6.7941    4.1430  -22.4189 H   0  0  0  0  0  0  0  0  0  0  0  0
   -7.8809    4.0712  -21.0510 H   0  0  0  0  0  0  0  0  0  0  0  0
   -6.8671    2.6265  -21.4920 H   0  0  0  0  0  0  0  0  0  0  0  0
  1  2  1  0
  2  3  1  0
  3  4  2  0
  3  5  1  0
  5  6  1  0
  6  7  1  0
  8  7  1  6
  8  9  1  0
  9 10  2  0
  9 11  1  0
 11 12  1  0
 12 13  2  0
 13 14  1  0
 14 15  2  0
 15 16  1  0
 16 17  2  0
 17 18  1  0
 18 19  2  0
 19 20  1  0
 20 21  2  0
 20 22  1  0
 19 23  1  0
 18 24  1  0
 17 25  1  0
 15 26  1  0
 13 27  1  0
 11 28  1  0
 28 29  1  0
 29 30  1  0
 30 31  1  0
 31 32  1  0
 32 33  2  0
 33 34  1  0
 34 35  2  0
 35 36  1  0
 36 37  2  0
 36 38  1  0
 35 39  1  0
 33 40  1  0
 31 41  1  0
 30 42  1  0
 30 43  1  0
 29 44  1  1
 28 45  1  0
 28 46  1  0
  8 47  1  0
 47 48  2  0
 48 49  1  0
 49 50  1  0
 49 51  2  0
 51 52  1  0
 52 53  2  0
 53 54  1  0
 54 55  2  0
 52 56  1  0
 51 57  1  0
 48 58  1  0
  7 59  1  0
  7 60  1  0
  5 61  1  0
  5 62  1  0
  2 63  1  0
  1 64  1  0
  1 65  1  0
  1 66  1  0
 54  6  1  0
 29  8  1  0
 37 32  1  0
 53 47  1  0
 21 12  1  0
 21 16  1  0
M  END
>  <cnnaffinities>  (73) 
[6.54157, 7.13621, 6.74452]

>  <score>  (73) 
6.54157

>  <index>  (73) 
75

>  <Smiles>  (73) 
C(N(C(=O)C(N1C([C@@]2(C(=O)N(c3c(nc(c4c(c(c(c(c34)[H])[H])[H])[H])[H])[H])C([C@@]2(C(N(c2c(nc(c(n2)[H])[H])[H])[H])([H])[H])[H])([H])[H])c2c(c(Cl)c(c(c2C1=O)[H])[H])[H])([H])[H])([H])[H])[H])([H])([H])[H]

>  <h>  (73) 
<NA>

>  <Training>  (73) 
True

>  <Success>  (73) 
True

>  <enamine_searched>  (73) 
False

>  <enamine_id>  (73) 
nan

$$$$

     RDKit          3D

 66 71  0  0  0  0  0  0  0  0999 V2000
   -7.9581   -3.5470  -24.1450 C   0  0  0  0  0  0  0  0  0  0  0  0
   -8.3017   -2.7854  -22.8593 C   0  0  1  0  0  0  0  0  0  0  0  0
   -7.0741   -2.5681  -21.9489 C   0  0  0  0  0  0  0  0  0  0  0  0
   -7.4145   -1.3735  -21.1970 N   0  0  0  0  0  0  0  0  0  0  0  0
   -6.6055   -0.8095  -20.1730 C   0  0  0  0  0  0  0  0  0  0  0  0
   -6.9142   -1.0443  -18.8587 C   0  0  0  0  0  0  0  0  0  0  0  0
   -6.2140   -0.5545  -17.8047 N   0  0  0  0  0  0  0  0  0  0  0  0
   -5.1755    0.2021  -18.0771 C   0  0  0  0  0  0  0  0  0  0  0  0
   -4.7389    0.5296  -19.3934 C   0  0  0  0  0  0  0  0  0  0  0  0
   -3.6106    1.3639  -19.6348 C   0  0  0  0  0  0  0  0  0  0  0  0
   -3.2199    1.6540  -20.9143 C   0  0  0  0  0  0  0  0  0  0  0  0
   -3.9306    1.1259  -22.0108 C   0  0  0  0  0  0  0  0  0  0  0  0
   -5.0299    0.3243  -21.8024 C   0  0  0  0  0  0  0  0  0  0  0  0
   -5.4693    0.0049  -20.4854 C   0  0  0  0  0  0  0  0  0  0  0  0
   -5.5653   -0.0677  -22.6595 H   0  0  0  0  0  0  0  0  0  0  0  0
   -3.6223    1.3684  -23.0260 H   0  0  0  0  0  0  0  0  0  0  0  0
   -2.3648    2.3055  -21.0921 H   0  0  0  0  0  0  0  0  0  0  0  0
   -3.0798    1.7707  -18.7799 H   0  0  0  0  0  0  0  0  0  0  0  0
   -4.6237    0.6057  -17.2275 H   0  0  0  0  0  0  0  0  0  0  0  0
   -7.7707   -1.6691  -18.6112 H   0  0  0  0  0  0  0  0  0  0  0  0
   -8.4870   -0.6767  -21.7079 C   0  0  0  0  0  0  0  0  0  0  0  0
   -8.9658    0.3107  -21.1843 O   0  0  0  0  0  0  0  0  0  0  0  0
   -8.9339   -1.3673  -23.0234 C   0  0  1  0  0  0  0  0  0  0  0  0
   -8.3307   -0.6349  -24.2514 C   0  0  0  0  0  0  0  0  0  0  0  0
   -8.8566    0.7048  -24.3919 N   0  0  0  0  0  0  0  0  0  0  0  0
   -7.9590    1.8353  -24.5535 C   0  0  0  0  0  0  0  0  0  0  0  0
   -7.7670    2.5941  -23.2386 C   0  0  0  0  0  0  0  0  0  0  0  0
   -6.8312    3.7726  -23.3871 N   0  0  0  0  0  4  0  0  0  0  0  0
   -7.4782    5.0082  -24.0023 C   0  0  0  0  0  0  0  0  0  0  0  0
   -8.3763    5.7426  -23.0106 C   0  0  0  0  0  0  0  0  0  0  0  0
   -7.6703    6.0935  -21.8433 O   0  0  0  0  0  0  0  0  0  0  0  0
   -7.1399    4.9547  -21.2021 C   0  0  0  0  0  0  0  0  0  0  0  0
   -6.1803    4.1814  -22.0887 C   0  0  0  0  0  0  0  0  0  0  0  0
   -5.8321    3.2754  -21.5825 H   0  0  0  0  0  0  0  0  0  0  0  0
   -5.3205    4.8128  -22.3200 H   0  0  0  0  0  0  0  0  0  0  0  0
   -6.5914    5.3385  -20.3455 H   0  0  0  0  0  0  0  0  0  0  0  0
   -7.9480    4.2843  -20.8738 H   0  0  0  0  0  0  0  0  0  0  0  0
   -8.7270    6.6850  -23.4411 H   0  0  0  0  0  0  0  0  0  0  0  0
   -9.2555    5.1257  -22.7623 H   0  0  0  0  0  0  0  0  0  0  0  0
   -8.0531    4.7016  -24.8773 H   0  0  0  0  0  0  0  0  0  0  0  0
   -6.6721    5.6774  -24.3121 H   0  0  0  0  0  0  0  0  0  0  0  0
   -6.0608    3.4688  -24.0140 H   0  0  0  0  0  0  0  0  0  0  0  0
   -8.7384    2.9411  -22.8763 H   0  0  0  0  0  0  0  0  0  0  0  0
   -7.3444    1.9244  -22.4817 H   0  0  0  0  0  0  0  0  0  0  0  0
   -8.3822    2.4912  -25.3186 H   0  0  0  0  0  0  0  0  0  0  0  0
   -6.9959    1.4514  -24.9096 H   0  0  0  0  0  0  0  0  0  0  0  0
  -10.1988    0.9389  -24.3431 C   0  0  0  0  0  0  0  0  0  0  0  0
  -10.7021    1.9982  -24.6942 O   0  0  0  0  0  0  0  0  0  0  0  0
  -11.0320   -0.1895  -23.7982 C   0  0  0  0  0  0  0  0  0  0  0  0
  -12.4179   -0.0668  -23.8791 C   0  0  0  0  0  0  0  0  0  0  0  0
  -13.2374   -1.0296  -23.3250 C   0  0  0  0  0  0  0  0  0  0  0  0
  -12.6563   -2.1061  -22.6569 C   0  0  0  0  0  0  0  0  0  0  0  0
  -13.6889   -3.2896  -21.9060 Cl  0  0  0  0  0  0  0  0  0  0  0  0
  -11.2822   -2.2435  -22.5613 C   0  0  0  0  0  0  0  0  0  0  0  0
  -10.4433   -1.2953  -23.1616 C   0  0  0  0  0  0  0  0  0  0  0  0
  -10.8870   -3.0806  -21.9960 H   0  0  0  0  0  0  0  0  0  0  0  0
  -14.3164   -0.9470  -23.3818 H   0  0  0  0  0  0  0  0  0  0  0  0
  -12.8165    0.8171  -24.3652 H   0  0  0  0  0  0  0  0  0  0  0  0
   -8.5656   -1.2284  -25.1503 H   0  0  0  0  0  0  0  0  0  0  0  0
   -7.2435   -0.5601  -24.1447 H   0  0  0  0  0  0  0  0  0  0  0  0
   -6.8948   -3.4116  -21.2716 H   0  0  0  0  0  0  0  0  0  0  0  0
   -6.1567   -2.4249  -22.5429 H   0  0  0  0  0  0  0  0  0  0  0  0
   -9.0244   -3.3739  -22.2868 H   0  0  0  0  0  0  0  0  0  0  0  0
   -8.8194   -3.6358  -24.8182 H   0  0  0  0  0  0  0  0  0  0  0  0
   -7.1539   -3.0440  -24.6980 H   0  0  0  0  0  0  0  0  0  0  0  0
   -7.6061   -4.5608  -23.9202 H   0  0  0  0  0  0  0  0  0  0  0  0
  1  2  1  0
  2  3  1  0
  3  4  1  0
  4  5  1  0
  5  6  2  0
  6  7  1  0
  7  8  2  0
  8  9  1  0
  9 10  2  0
 10 11  1  0
 11 12  2  0
 12 13  1  0
 13 14  2  0
 13 15  1  0
 12 16  1  0
 11 17  1  0
 10 18  1  0
  8 19  1  0
  6 20  1  0
  4 21  1  0
 21 22  2  0
 21 23  1  0
 23 24  1  6
 24 25  1  0
 25 26  1  0
 26 27  1  0
 27 28  1  0
 28 29  1  0
 29 30  1  0
 30 31  1  0
 31 32  1  0
 32 33  1  0
 33 34  1  0
 33 35  1  0
 32 36  1  0
 32 37  1  0
 30 38  1  0
 30 39  1  0
 29 40  1  0
 29 41  1  0
 28 42  1  0
 27 43  1  0
 27 44  1  0
 26 45  1  0
 26 46  1  0
 25 47  1  0
 47 48  2  0
 47 49  1  0
 49 50  2  0
 50 51  1  0
 51 52  2  0
 52 53  1  0
 52 54  1  0
 54 55  2  0
 54 56  1  0
 51 57  1  0
 50 58  1  0
 24 59  1  0
 24 60  1  0
  3 61  1  0
  3 62  1  0
  2 63  1  1
  1 64  1  0
  1 65  1  0
  1 66  1  0
 23  2  1  0
 33 28  1  0
 55 49  1  0
 14  5  1  0
 55 23  1  0
 14  9  1  0
M  CHG  1  28   1
M  END
>  <cnnaffinities>  (74) 
[6.50788, 6.57095, 6.77603, 6.81621]

>  <score>  (74) 
6.50788

>  <index>  (74) 
76

>  <Smiles>  (74) 
C([C@]1(C(N(c2c(nc(c3c(c(c(c(c23)[H])[H])[H])[H])[H])[H])C(=O)[C@]21C(N(C(C([N+]1(C(C(OC(C1([H])[H])([H])[H])([H])[H])([H])[H])[H])([H])[H])([H])[H])C(=O)c1c(c(c(Cl)c(c21)[H])[H])[H])([H])[H])([H])[H])[H])([H])([H])[H]

>  <h>  (74) 
<NA>

>  <Training>  (74) 
True

>  <Success>  (74) 
True

>  <enamine_searched>  (74) 
False

>  <enamine_id>  (74) 
nan

$$$$

     RDKit          3D

 55 60  0  0  0  0  0  0  0  0999 V2000
   -7.8772   -3.5903  -24.1092 C   0  0  0  0  0  0  0  0  0  0  0  0
   -8.2850   -2.8482  -22.8272 C   0  0  1  0  0  0  0  0  0  0  0  0
   -7.0792   -2.6109  -21.8894 C   0  0  0  0  0  0  0  0  0  0  0  0
   -7.4058   -1.3807  -21.1965 N   0  0  0  0  0  0  0  0  0  0  0  0
   -6.6020   -0.8094  -20.1712 C   0  0  0  0  0  0  0  0  0  0  0  0
   -6.9082   -1.0436  -18.8572 C   0  0  0  0  0  0  0  0  0  0  0  0
   -6.2072   -0.5514  -17.8038 N   0  0  0  0  0  0  0  0  0  0  0  0
   -5.1724    0.2085  -18.0743 C   0  0  0  0  0  0  0  0  0  0  0  0
   -4.7354    0.5342  -19.3915 C   0  0  0  0  0  0  0  0  0  0  0  0
   -3.6068    1.3662  -19.6358 C   0  0  0  0  0  0  0  0  0  0  0  0
   -3.2103    1.6427  -20.9133 C   0  0  0  0  0  0  0  0  0  0  0  0
   -3.9147    1.0909  -22.0068 C   0  0  0  0  0  0  0  0  0  0  0  0
   -5.0057    0.2797  -21.7976 C   0  0  0  0  0  0  0  0  0  0  0  0
   -5.4582   -0.0047  -20.4815 C   0  0  0  0  0  0  0  0  0  0  0  0
   -5.5616   -0.0968  -22.6526 H   0  0  0  0  0  0  0  0  0  0  0  0
   -3.6139    1.3386  -23.0203 H   0  0  0  0  0  0  0  0  0  0  0  0
   -2.3613    2.2967  -21.0976 H   0  0  0  0  0  0  0  0  0  0  0  0
   -3.0754    1.7777  -18.7806 H   0  0  0  0  0  0  0  0  0  0  0  0
   -4.6220    0.6125  -17.2234 H   0  0  0  0  0  0  0  0  0  0  0  0
   -7.7602   -1.6703  -18.6031 H   0  0  0  0  0  0  0  0  0  0  0  0
   -8.4338   -0.6633  -21.7648 C   0  0  0  0  0  0  0  0  0  0  0  0
   -8.8285    0.3987  -21.3316 O   0  0  0  0  0  0  0  0  0  0  0  0
   -8.9708   -1.4505  -22.9962 C   0  0  1  0  0  0  0  0  0  0  0  0
   -8.5195   -0.7782  -24.3215 C   0  0  0  0  0  0  0  0  0  0  0  0
   -9.2025    0.4715  -24.5713 N   0  0  0  0  0  0  0  0  0  0  0  0
   -8.4383    1.6649  -24.9033 C   0  0  0  0  0  0  0  0  0  0  0  0
   -8.1396    2.5193  -23.7045 C   0  0  0  0  0  0  0  0  0  0  0  0
   -8.9547    3.3792  -23.0599 C   0  0  0  0  0  0  0  0  0  0  0  0
   -8.2685    3.9263  -22.0252 O   0  0  0  0  0  0  0  0  0  0  0  0
   -7.0624    3.3384  -22.0705 C   0  0  0  0  0  0  0  0  0  0  0  0
   -6.9111    2.5076  -23.0518 N   0  0  0  0  0  0  0  0  0  0  0  0
   -6.3946    3.5840  -21.2535 H   0  0  0  0  0  0  0  0  0  0  0  0
   -9.9892    3.6656  -23.1634 H   0  0  0  0  0  0  0  0  0  0  0  0
   -9.0410    2.2247  -25.6250 H   0  0  0  0  0  0  0  0  0  0  0  0
   -7.4943    1.3651  -25.3708 H   0  0  0  0  0  0  0  0  0  0  0  0
  -10.5533    0.6074  -24.4172 C   0  0  0  0  0  0  0  0  0  0  0  0
  -11.1526    1.5998  -24.8167 O   0  0  0  0  0  0  0  0  0  0  0  0
  -11.2372   -0.5068  -23.6797 C   0  0  0  0  0  0  0  0  0  0  0  0
  -12.6327   -0.5137  -23.6279 C   0  0  0  0  0  0  0  0  0  0  0  0
  -13.3011   -1.4093  -22.8165 C   0  0  0  0  0  0  0  0  0  0  0  0
  -12.5494   -2.2774  -22.0333 C   0  0  0  0  0  0  0  0  0  0  0  0
  -13.1905   -3.1063  -21.1927 F   0  0  0  0  0  0  0  0  0  0  0  0
  -11.1721   -2.3049  -22.0786 C   0  0  0  0  0  0  0  0  0  0  0  0
  -10.4914   -1.4532  -22.9585 C   0  0  0  0  0  0  0  0  0  0  0  0
  -10.6566   -2.9720  -21.3957 H   0  0  0  0  0  0  0  0  0  0  0  0
  -14.3813   -1.4318  -22.7423 H   0  0  0  0  0  0  0  0  0  0  0  0
  -13.1662    0.2219  -24.2206 H   0  0  0  0  0  0  0  0  0  0  0  0
   -8.7004   -1.4758  -25.1564 H   0  0  0  0  0  0  0  0  0  0  0  0
   -7.4479   -0.5571  -24.2506 H   0  0  0  0  0  0  0  0  0  0  0  0
   -6.1422   -2.5109  -22.4616 H   0  0  0  0  0  0  0  0  0  0  0  0
   -6.9361   -3.4289  -21.1721 H   0  0  0  0  0  0  0  0  0  0  0  0
   -9.0050   -3.4741  -22.2946 H   0  0  0  0  0  0  0  0  0  0  0  0
   -8.7240   -3.7349  -24.7907 H   0  0  0  0  0  0  0  0  0  0  0  0
   -7.0998   -3.0425  -24.6577 H   0  0  0  0  0  0  0  0  0  0  0  0
   -7.4691   -4.5804  -23.8732 H   0  0  0  0  0  0  0  0  0  0  0  0
  1  2  1  0
  2  3  1  0
  3  4  1  0
  4  5  1  0
  5  6  2  0
  6  7  1  0
  7  8  2  0
  8  9  1  0
  9 10  2  0
 10 11  1  0
 11 12  2  0
 12 13  1  0
 13 14  2  0
 13 15  1  0
 12 16  1  0
 11 17  1  0
 10 18  1  0
  8 19  1  0
  6 20  1  0
  4 21  1  0
 21 22  2  0
 21 23  1  0
 23 24  1  6
 24 25  1  0
 25 26  1  0
 26 27  1  0
 27 28  2  0
 28 29  1  0
 29 30  1  0
 30 31  2  0
 30 32  1  0
 28 33  1  0
 26 34  1  0
 26 35  1  0
 25 36  1  0
 36 37  2  0
 36 38  1  0
 38 39  2  0
 39 40  1  0
 40 41  2  0
 41 42  1  0
 41 43  1  0
 43 44  2  0
 43 45  1  0
 40 46  1  0
 39 47  1  0
 24 48  1  0
 24 49  1  0
  3 50  1  0
  3 51  1  0
  2 52  1  1
  1 53  1  0
  1 54  1  0
  1 55  1  0
 23  2  1  0
 31 27  1  0
 44 38  1  0
 14  5  1  0
 44 23  1  0
 14  9  1  0
M  END
>  <cnnaffinities>  (75) 
[6.1734, 6.2808]

>  <score>  (75) 
6.1734

>  <index>  (75) 
77

>  <Smiles>  (75) 
C([C@]1(C(N(c2c(nc(c3c(c(c(c(c23)[H])[H])[H])[H])[H])[H])C(=O)[C@]21C(N(C(c1c(oc(n1)[H])[H])([H])[H])C(=O)c1c(c(c(F)c(c21)[H])[H])[H])([H])[H])([H])[H])[H])([H])([H])[H]

>  <h>  (75) 
<NA>

>  <Training>  (75) 
True

>  <Success>  (75) 
True

>  <enamine_searched>  (75) 
False

>  <enamine_id>  (75) 
nan

$$$$

     RDKit          3D

 56 60  0  0  0  0  0  0  0  0999 V2000
   -7.2922    3.4538  -21.9141 C   0  0  0  0  0  0  0  0  0  0  0  0
   -8.1250    2.9740  -23.0018 N   0  0  0  0  0  0  0  0  0  0  0  0
   -7.5474    2.2541  -23.9943 C   0  0  0  0  0  0  0  0  0  0  0  0
   -6.3330    2.1185  -24.0844 O   0  0  0  0  0  0  0  0  0  0  0  0
   -8.4984    1.6277  -25.0227 C   0  0  0  0  0  0  0  0  0  0  0  0
   -9.2439    0.4895  -24.5157 N   0  0  0  0  0  0  0  0  0  0  0  0
   -8.5577   -0.7717  -24.3163 C   0  0  0  0  0  0  0  0  0  0  0  0
   -8.9839   -1.4555  -22.9905 C   0  0  2  0  0  0  0  0  0  0  0  0
   -8.4360   -0.6635  -21.7745 C   0  0  0  0  0  0  0  0  0  0  0  0
   -8.8238    0.4120  -21.3603 O   0  0  0  0  0  0  0  0  0  0  0  0
   -7.4107   -1.3771  -21.1984 N   0  0  0  0  0  0  0  0  0  0  0  0
   -6.6081   -0.8043  -20.1736 C   0  0  0  0  0  0  0  0  0  0  0  0
   -6.9092   -1.0420  -18.8572 C   0  0  0  0  0  0  0  0  0  0  0  0
   -6.2078   -0.5510  -17.8048 N   0  0  0  0  0  0  0  0  0  0  0  0
   -5.1698    0.2077  -18.0735 C   0  0  0  0  0  0  0  0  0  0  0  0
   -4.7337    0.5324  -19.3904 C   0  0  0  0  0  0  0  0  0  0  0  0
   -3.6036    1.3624  -19.6358 C   0  0  0  0  0  0  0  0  0  0  0  0
   -3.2121    1.6482  -20.9167 C   0  0  0  0  0  0  0  0  0  0  0  0
   -3.9305    1.1143  -22.0113 C   0  0  0  0  0  0  0  0  0  0  0  0
   -5.0266    0.3115  -21.7984 C   0  0  0  0  0  0  0  0  0  0  0  0
   -5.4681    0.0068  -20.4814 C   0  0  0  0  0  0  0  0  0  0  0  0
   -5.5740   -0.0844  -22.6490 H   0  0  0  0  0  0  0  0  0  0  0  0
   -3.6356    1.3545  -23.0268 H   0  0  0  0  0  0  0  0  0  0  0  0
   -2.3583    2.2948  -21.0976 H   0  0  0  0  0  0  0  0  0  0  0  0
   -3.0711    1.7743  -18.7829 H   0  0  0  0  0  0  0  0  0  0  0  0
   -4.6217    0.6116  -17.2229 H   0  0  0  0  0  0  0  0  0  0  0  0
   -7.7581   -1.6709  -18.6013 H   0  0  0  0  0  0  0  0  0  0  0  0
   -7.0940   -2.6182  -21.8768 C   0  0  0  0  0  0  0  0  0  0  0  0
   -8.2975   -2.8522  -22.8204 C   0  0  2  0  0  0  0  0  0  0  0  0
   -7.8837   -3.5958  -24.0999 C   0  0  0  0  0  0  0  0  0  0  0  0
   -7.4717   -4.5841  -23.8585 H   0  0  0  0  0  0  0  0  0  0  0  0
   -7.1086   -3.0468  -24.6511 H   0  0  0  0  0  0  0  0  0  0  0  0
   -8.7303   -3.7472  -24.7802 H   0  0  0  0  0  0  0  0  0  0  0  0
   -9.0207   -3.4801  -22.2946 H   0  0  0  0  0  0  0  0  0  0  0  0
   -6.1516   -2.5369  -22.4438 H   0  0  0  0  0  0  0  0  0  0  0  0
   -6.9639   -3.4314  -21.1508 H   0  0  0  0  0  0  0  0  0  0  0  0
  -10.5037   -1.4593  -22.9225 C   0  0  0  0  0  0  0  0  0  0  0  0
  -11.1615   -2.2892  -22.0050 C   0  0  0  0  0  0  0  0  0  0  0  0
  -12.5411   -2.2754  -21.9234 C   0  0  0  0  0  0  0  0  0  0  0  0
  -13.3479   -3.3109  -20.7811 Cl  0  0  0  0  0  0  0  0  0  0  0  0
  -13.3072   -1.4246  -22.7189 C   0  0  0  0  0  0  0  0  0  0  0  0
  -12.6601   -0.5455  -23.5646 C   0  0  0  0  0  0  0  0  0  0  0  0
  -11.2665   -0.5276  -23.6398 C   0  0  0  0  0  0  0  0  0  0  0  0
  -10.6029    0.5908  -24.3896 C   0  0  0  0  0  0  0  0  0  0  0  0
  -11.2274    1.5514  -24.8175 O   0  0  0  0  0  0  0  0  0  0  0  0
  -13.2116    0.1735  -24.1578 H   0  0  0  0  0  0  0  0  0  0  0  0
  -14.3877   -1.4351  -22.6287 H   0  0  0  0  0  0  0  0  0  0  0  0
  -10.6082   -2.9226  -21.3194 H   0  0  0  0  0  0  0  0  0  0  0  0
   -7.4859   -0.5490  -24.2833 H   0  0  0  0  0  0  0  0  0  0  0  0
   -8.7569   -1.4608  -25.1553 H   0  0  0  0  0  0  0  0  0  0  0  0
   -7.8633    1.3362  -25.8652 H   0  0  0  0  0  0  0  0  0  0  0  0
   -9.2594    2.3320  -25.3739 H   0  0  0  0  0  0  0  0  0  0  0  0
   -9.1329    2.9443  -22.8898 H   0  0  0  0  0  0  0  0  0  0  0  0
   -7.9464    3.9268  -21.1783 H   0  0  0  0  0  0  0  0  0  0  0  0
   -6.7237    2.6189  -21.4656 H   0  0  0  0  0  0  0  0  0  0  0  0
   -6.5687    4.1970  -22.2771 H   0  0  0  0  0  0  0  0  0  0  0  0
  1  2  1  0
  2  3  1  0
  3  4  2  0
  3  5  1  0
  5  6  1  0
  6  7  1  0
  8  7  1  6
  8  9  1  0
  9 10  2  0
  9 11  1  0
 11 12  1  0
 12 13  2  0
 13 14  1  0
 14 15  2  0
 15 16  1  0
 16 17  2  0
 17 18  1  0
 18 19  2  0
 19 20  1  0
 20 21  2  0
 20 22  1  0
 19 23  1  0
 18 24  1  0
 17 25  1  0
 15 26  1  0
 13 27  1  0
 11 28  1  0
 28 29  1  0
 29 30  1  0
 30 31  1  0
 30 32  1  0
 30 33  1  0
 29 34  1  1
 28 35  1  0
 28 36  1  0
  8 37  1  0
 37 38  2  0
 38 39  1  0
 39 40  1  0
 39 41  2  0
 41 42  1  0
 42 43  2  0
 43 44  1  0
 44 45  2  0
 42 46  1  0
 41 47  1  0
 38 48  1  0
  7 49  1  0
  7 50  1  0
  5 51  1  0
  5 52  1  0
  2 53  1  0
  1 54  1  0
  1 55  1  0
  1 56  1  0
 44  6  1  0
 29  8  1  0
 43 37  1  0
 21 12  1  0
 21 16  1  0
M  END
>  <cnnaffinities>  (76) 
[6.47352]

>  <score>  (76) 
6.47352

>  <index>  (76) 
78

>  <Smiles>  (76) 
C(N(C(=O)C(N1C([C@@]2(C(=O)N(c3c(nc(c4c(c(c(c(c34)[H])[H])[H])[H])[H])[H])C([C@@]2(C([H])([H])[H])[H])([H])[H])c2c(c(Cl)c(c(c2C1=O)[H])[H])[H])([H])[H])([H])[H])[H])([H])([H])[H]

>  <h>  (76) 
<NA>

>  <Training>  (76) 
True

>  <Success>  (76) 
True

>  <enamine_searched>  (76) 
False

>  <enamine_id>  (76) 
nan

$$$$

     RDKit          3D

 45 49  0  0  0  0  0  0  0  0999 V2000
   -9.8854   -1.0269  -23.8715 C   0  0  0  0  0  0  0  0  0  0  0  0
   -8.7965   -1.4166  -22.9980 N   0  0  0  0  0  0  0  0  0  0  0  0
   -8.5268   -0.7833  -21.8074 C   0  0  0  0  0  0  0  0  0  0  0  0
   -9.1383    0.1260  -21.2970 O   0  0  0  0  0  0  0  0  0  0  0  0
   -7.3780   -1.4004  -21.2719 N   0  0  0  0  0  0  0  0  0  0  0  0
   -6.5927   -0.8291  -20.2149 C   0  0  0  0  0  0  0  0  0  0  0  0
   -6.9102   -1.0593  -18.9029 C   0  0  0  0  0  0  0  0  0  0  0  0
   -6.2214   -0.5557  -17.8406 N   0  0  0  0  0  0  0  0  0  0  0  0
   -5.1811    0.2014  -18.0914 C   0  0  0  0  0  0  0  0  0  0  0  0
   -4.7313    0.5255  -19.4009 C   0  0  0  0  0  0  0  0  0  0  0  0
   -3.6033    1.3599  -19.6321 C   0  0  0  0  0  0  0  0  0  0  0  0
   -3.2135    1.6562  -20.9079 C   0  0  0  0  0  0  0  0  0  0  0  0
   -3.9334    1.1364  -22.0066 C   0  0  0  0  0  0  0  0  0  0  0  0
   -5.0250    0.3332  -21.8069 C   0  0  0  0  0  0  0  0  0  0  0  0
   -5.4538   -0.0006  -20.4965 C   0  0  0  0  0  0  0  0  0  0  0  0
   -5.5828   -0.0504  -22.6540 H   0  0  0  0  0  0  0  0  0  0  0  0
   -3.6280    1.3791  -23.0182 H   0  0  0  0  0  0  0  0  0  0  0  0
   -2.3583    2.3007  -21.0907 H   0  0  0  0  0  0  0  0  0  0  0  0
   -3.0696    1.7639  -18.7757 H   0  0  0  0  0  0  0  0  0  0  0  0
   -4.6346    0.6033  -17.2358 H   0  0  0  0  0  0  0  0  0  0  0  0
   -7.7584   -1.6864  -18.6410 H   0  0  0  0  0  0  0  0  0  0  0  0
   -6.9150   -2.4146  -22.1134 C   0  0  0  0  0  0  0  0  0  0  0  0
   -5.9434   -3.0970  -21.9095 O   0  0  0  0  0  0  0  0  0  0  0  0
   -7.8491   -2.4520  -23.3193 C   0  0  0  0  0  0  0  0  0  0  0  0
   -7.1397   -2.4160  -24.6994 C   0  0  0  0  0  0  0  0  0  0  0  0
   -7.6550   -3.7904  -25.0179 N   0  0  0  0  0  0  0  0  0  0  0  0
   -8.5806   -3.8746  -26.4302 S   0  0  0  0  0  0  0  0  0  0  0  0
   -9.7041   -2.9562  -26.2760 O   0  0  0  0  0  0  0  0  0  0  0  0
   -7.6605   -3.7362  -27.5427 O   0  0  0  0  0  0  0  0  0  0  0  0
   -9.2948   -5.5004  -26.4913 C   0  0  0  0  0  0  0  0  0  0  0  0
  -10.4776   -5.6475  -27.4229 C   0  0  0  0  0  0  0  0  0  0  0  0
  -10.6858   -5.6894  -25.9393 C   0  0  0  0  0  0  0  0  0  0  0  0
  -11.1545   -4.8303  -25.4604 H   0  0  0  0  0  0  0  0  0  0  0  0
  -10.9079   -6.6507  -25.4842 H   0  0  0  0  0  0  0  0  0  0  0  0
  -10.7947   -4.7621  -27.9705 H   0  0  0  0  0  0  0  0  0  0  0  0
  -10.5608   -6.5745  -27.9883 H   0  0  0  0  0  0  0  0  0  0  0  0
   -8.5573   -6.2951  -26.4224 H   0  0  0  0  0  0  0  0  0  0  0  0
   -8.3822   -3.8520  -23.7256 C   0  0  0  0  0  0  0  0  0  0  0  0
   -9.4708   -3.9390  -23.8115 H   0  0  0  0  0  0  0  0  0  0  0  0
   -7.9899   -4.6605  -23.1096 H   0  0  0  0  0  0  0  0  0  0  0  0
   -6.0509   -2.4208  -24.6365 H   0  0  0  0  0  0  0  0  0  0  0  0
   -7.4709   -1.6244  -25.3809 H   0  0  0  0  0  0  0  0  0  0  0  0
  -10.4507   -0.2524  -23.3505 H   0  0  0  0  0  0  0  0  0  0  0  0
   -9.5070   -0.6281  -24.8211 H   0  0  0  0  0  0  0  0  0  0  0  0
  -10.5294   -1.8864  -24.0935 H   0  0  0  0  0  0  0  0  0  0  0  0
  1  2  1  0
  2  3  1  0
  3  4  2  0
  3  5  1  0
  5  6  1  0
  6  7  2  0
  7  8  1  0
  8  9  2  0
  9 10  1  0
 10 11  2  0
 11 12  1  0
 12 13  2  0
 13 14  1  0
 14 15  2  0
 14 16  1  0
 13 17  1  0
 12 18  1  0
 11 19  1  0
  9 20  1  0
  7 21  1  0
  5 22  1  0
 22 23  2  0
 22 24  1  0
 24 25  1  0
 25 26  1  0
 26 27  1  0
 27 28  2  0
 27 29  2  0
 27 30  1  0
 30 31  1  0
 31 32  1  0
 32 33  1  0
 32 34  1  0
 31 35  1  0
 31 36  1  0
 30 37  1  0
 26 38  1  0
 38 39  1  0
 38 40  1  0
 25 41  1  0
 25 42  1  0
  1 43  1  0
  1 44  1  0
  1 45  1  0
 24  2  1  0
 32 30  1  0
 15  6  1  0
 38 24  1  0
 15 10  1  0
M  END
>  <cnnaffinities>  (77) 
[5.59902, 5.28647, 5.36501, 5.40144, 5.36312, 5.55977, 5.44957, 5.49162, 5.4435, 5.48414, 5.51028, 5.5094, 5.5078]

>  <score>  (77) 
5.59902

>  <index>  (77) 
79

>  <Smiles>  (77) 
C(N1C(=O)N(c2c(nc(c3c(c(c(c(c23)[H])[H])[H])[H])[H])[H])C(=O)C21C(N(S(=O)(=O)C1(C(C1([H])[H])([H])[H])[H])C2([H])[H])([H])[H])([H])([H])[H]

>  <h>  (77) 
<NA>

>  <Training>  (77) 
True

>  <Success>  (77) 
True

>  <enamine_searched>  (77) 
False

>  <enamine_id>  (77) 
nan

$$$$

     RDKit          3D

 60 65  0  0  0  0  0  0  0  0999 V2000
   -8.4810    2.2125  -28.9414 C   0  0  0  0  0  0  0  0  0  0  0  0
   -8.7161    2.2414  -27.5040 N   0  0  0  0  0  0  0  0  0  0  0  0
   -7.8979    1.5468  -26.6703 C   0  0  0  0  0  0  0  0  0  0  0  0
   -6.9160    0.9413  -27.0788 O   0  0  0  0  0  0  0  0  0  0  0  0
   -8.2532    1.6026  -25.1819 C   0  0  0  0  0  0  0  0  0  0  0  0
   -9.0141    0.5039  -24.6483 N   0  0  0  0  0  0  0  0  0  0  0  0
   -8.3632   -0.7670  -24.3804 C   0  0  0  0  0  0  0  0  0  0  0  0
   -8.8800   -1.4226  -23.0705 C   0  0  2  0  0  0  0  0  0  0  0  0
   -8.3647   -0.6341  -21.8406 C   0  0  0  0  0  0  0  0  0  0  0  0
   -8.7109    0.4715  -21.4781 O   0  0  0  0  0  0  0  0  0  0  0  0
   -7.4123   -1.3878  -21.1912 N   0  0  0  0  0  0  0  0  0  0  0  0
   -6.6049   -0.8165  -20.1691 C   0  0  0  0  0  0  0  0  0  0  0  0
   -6.9083   -1.0517  -18.8538 C   0  0  0  0  0  0  0  0  0  0  0  0
   -6.2099   -0.5539  -17.8023 N   0  0  0  0  0  0  0  0  0  0  0  0
   -5.1738    0.2048  -18.0762 C   0  0  0  0  0  0  0  0  0  0  0  0
   -4.7400    0.5269  -19.3961 C   0  0  0  0  0  0  0  0  0  0  0  0
   -3.6103    1.3570  -19.6371 C   0  0  0  0  0  0  0  0  0  0  0  0
   -3.2145    1.6400  -20.9159 C   0  0  0  0  0  0  0  0  0  0  0  0
   -3.9238    1.0981  -22.0115 C   0  0  0  0  0  0  0  0  0  0  0  0
   -5.0136    0.2867  -21.8035 C   0  0  0  0  0  0  0  0  0  0  0  0
   -5.4664   -0.0061  -20.4842 C   0  0  0  0  0  0  0  0  0  0  0  0
   -5.5361   -0.1332  -22.6581 H   0  0  0  0  0  0  0  0  0  0  0  0
   -3.6149    1.3368  -23.0256 H   0  0  0  0  0  0  0  0  0  0  0  0
   -2.3613    2.2897  -21.0947 H   0  0  0  0  0  0  0  0  0  0  0  0
   -3.0805    1.7673  -18.7809 H   0  0  0  0  0  0  0  0  0  0  0  0
   -4.6227    0.6103  -17.2272 H   0  0  0  0  0  0  0  0  0  0  0  0
   -7.7603   -1.6776  -18.5968 H   0  0  0  0  0  0  0  0  0  0  0  0
   -7.0997   -2.6417  -21.8467 C   0  0  0  0  0  0  0  0  0  0  0  0
   -8.2624   -2.8468  -22.8410 C   0  0  2  0  0  0  0  0  0  0  0  0
   -7.8246   -3.6295  -24.0849 C   0  0  0  0  0  0  0  0  0  0  0  0
   -8.6435   -3.7681  -24.8001 H   0  0  0  0  0  0  0  0  0  0  0  0
   -7.0080   -3.1152  -24.6060 H   0  0  0  0  0  0  0  0  0  0  0  0
   -7.4559   -4.6235  -23.8077 H   0  0  0  0  0  0  0  0  0  0  0  0
   -9.0368   -3.4266  -22.3348 H   0  0  0  0  0  0  0  0  0  0  0  0
   -7.0198   -3.4474  -21.1068 H   0  0  0  0  0  0  0  0  0  0  0  0
   -6.1370   -2.5842  -22.3786 H   0  0  0  0  0  0  0  0  0  0  0  0
  -10.4027   -1.3748  -23.0789 C   0  0  0  0  0  0  0  0  0  0  0  0
  -11.1265   -2.1663  -22.1722 C   0  0  0  0  0  0  0  0  0  0  0  0
  -12.5078   -2.1229  -22.1601 C   0  0  0  0  0  0  0  0  0  0  0  0
  -13.3924   -3.1131  -21.0318 Cl  0  0  0  0  0  0  0  0  0  0  0  0
  -13.2077   -1.2846  -23.0272 C   0  0  0  0  0  0  0  0  0  0  0  0
  -12.5023   -0.4461  -23.8703 C   0  0  0  0  0  0  0  0  0  0  0  0
  -11.1052   -0.4512  -23.8724 C   0  0  0  0  0  0  0  0  0  0  0  0
  -10.3806    0.6055  -24.6512 C   0  0  0  0  0  0  0  0  0  0  0  0
  -10.9449    1.5378  -25.2145 O   0  0  0  0  0  0  0  0  0  0  0  0
  -13.0127    0.2584  -24.5186 H   0  0  0  0  0  0  0  0  0  0  0  0
  -14.2906   -1.2738  -22.9985 H   0  0  0  0  0  0  0  0  0  0  0  0
  -10.6326   -2.7998  -21.4423 H   0  0  0  0  0  0  0  0  0  0  0  0
   -8.5557   -1.4595  -25.2130 H   0  0  0  0  0  0  0  0  0  0  0  0
   -7.2905   -0.5745  -24.3138 H   0  0  0  0  0  0  0  0  0  0  0  0
   -8.4218    2.9493  -24.5399 C   0  0  0  0  0  0  0  0  0  0  0  0
   -7.1707    2.1590  -24.2925 C   0  0  0  0  0  0  0  0  0  0  0  0
   -6.2480    2.4487  -24.7909 H   0  0  0  0  0  0  0  0  0  0  0  0
   -7.0709    1.6727  -23.3249 H   0  0  0  0  0  0  0  0  0  0  0  0
   -8.3950    3.8259  -25.1814 H   0  0  0  0  0  0  0  0  0  0  0  0
   -9.1472    3.0151  -23.7352 H   0  0  0  0  0  0  0  0  0  0  0  0
   -9.5887    2.5961  -27.1346 H   0  0  0  0  0  0  0  0  0  0  0  0
   -8.4758    1.1855  -29.3280 H   0  0  0  0  0  0  0  0  0  0  0  0
   -7.5057    2.6496  -29.1913 H   0  0  0  0  0  0  0  0  0  0  0  0
   -9.2670    2.7849  -29.4424 H   0  0  0  0  0  0  0  0  0  0  0  0
  1  2  1  0
  2  3  1  0
  3  4  2  0
  3  5  1  0
  5  6  1  0
  6  7  1  0
  8  7  1  6
  8  9  1  0
  9 10  2  0
  9 11  1  0
 11 12  1  0
 12 13  2  0
 13 14  1  0
 14 15  2  0
 15 16  1  0
 16 17  2  0
 17 18  1  0
 18 19  2  0
 19 20  1  0
 20 21  2  0
 20 22  1  0
 19 23  1  0
 18 24  1  0
 17 25  1  0
 15 26  1  0
 13 27  1  0
 11 28  1  0
 28 29  1  0
 29 30  1  0
 30 31  1  0
 30 32  1  0
 30 33  1  0
 29 34  1  1
 28 35  1  0
 28 36  1  0
  8 37  1  0
 37 38  2  0
 38 39  1  0
 39 40  1  0
 39 41  2  0
 41 42  1  0
 42 43  2  0
 43 44  1  0
 44 45  2  0
 42 46  1  0
 41 47  1  0
 38 48  1  0
  7 49  1  0
  7 50  1  0
  5 51  1  0
 51 52  1  0
 52 53  1  0
 52 54  1  0
 51 55  1  0
 51 56  1  0
  2 57  1  0
  1 58  1  0
  1 59  1  0
  1 60  1  0
 52  5  1  0
 44  6  1  0
 29  8  1  0
 43 37  1  0
 21 12  1  0
 21 16  1  0
M  END
>  <cnnaffinities>  (78) 
[6.38126, 6.55044, 6.35128, 6.25375, 6.4217, 6.34458]

>  <score>  (78) 
6.38126

>  <index>  (78) 
80

>  <Smiles>  (78) 
C(N(C(=O)C1(N2C([C@@]3(C(=O)N(c4c(nc(c5c(c(c(c(c45)[H])[H])[H])[H])[H])[H])C([C@@]3(C([H])([H])[H])[H])([H])[H])c3c(c(Cl)c(c(c3C2=O)[H])[H])[H])([H])[H])C(C1([H])[H])([H])[H])[H])([H])([H])[H]

>  <h>  (78) 
<NA>

>  <Training>  (78) 
True

>  <Success>  (78) 
True

>  <enamine_searched>  (78) 
False

>  <enamine_id>  (78) 
nan

$$$$

     RDKit          3D

 36 38  0  0  0  0  0  0  0  0999 V2000
   -8.5058    0.7097  -21.4615 O   0  0  0  0  0  0  0  0  0  0  0  0
   -8.3849   -0.4023  -21.9337 C   0  0  0  0  0  0  0  0  0  0  0  0
   -7.4379   -1.4331  -21.2755 C   0  0  0  0  0  0  0  0  0  0  0  0
   -6.5821   -0.8280  -20.1830 C   0  0  0  0  0  0  0  0  0  0  0  0
   -6.8795   -1.0398  -18.8614 C   0  0  0  0  0  0  0  0  0  0  0  0
   -6.1986   -0.5365  -17.7944 N   0  0  0  0  0  0  0  0  0  0  0  0
   -5.1593    0.2195  -18.0624 C   0  0  0  0  0  0  0  0  0  0  0  0
   -4.7263    0.5339  -19.3793 C   0  0  0  0  0  0  0  0  0  0  0  0
   -3.6002    1.3652  -19.6199 C   0  0  0  0  0  0  0  0  0  0  0  0
   -3.2108    1.6585  -20.9001 C   0  0  0  0  0  0  0  0  0  0  0  0
   -3.9339    1.1304  -21.9932 C   0  0  0  0  0  0  0  0  0  0  0  0
   -5.0276    0.3235  -21.7866 C   0  0  0  0  0  0  0  0  0  0  0  0
   -5.4555    0.0017  -20.4717 C   0  0  0  0  0  0  0  0  0  0  0  0
   -5.5757   -0.0678  -22.6375 H   0  0  0  0  0  0  0  0  0  0  0  0
   -3.6225    1.3714  -23.0049 H   0  0  0  0  0  0  0  0  0  0  0  0
   -2.3537    2.3017  -21.0865 H   0  0  0  0  0  0  0  0  0  0  0  0
   -3.0569    1.7747  -18.7711 H   0  0  0  0  0  0  0  0  0  0  0  0
   -4.6024    0.6260  -17.2156 H   0  0  0  0  0  0  0  0  0  0  0  0
   -7.7293   -1.6606  -18.5866 H   0  0  0  0  0  0  0  0  0  0  0  0
   -6.8020   -1.8998  -22.0405 H   0  0  0  0  0  0  0  0  0  0  0  0
   -8.0409   -2.2452  -20.8452 H   0  0  0  0  0  0  0  0  0  0  0  0
   -9.0626   -0.7715  -23.0887 N   0  0  0  0  0  0  0  0  0  0  0  0
  -10.0066    0.1962  -23.6426 C   0  0  0  0  0  0  0  0  0  0  0  0
  -11.3807    0.2158  -23.0213 C   0  0  0  0  0  0  0  0  0  0  0  0
  -12.0208   -0.7906  -22.4170 C   0  0  0  0  0  0  0  0  0  0  0  0
  -11.5706   -2.1750  -22.1571 C   0  0  0  0  0  0  0  0  0  0  0  0
  -10.4472   -2.7809  -22.5516 C   0  0  0  0  0  0  0  0  0  0  0  0
   -9.3679   -2.1606  -23.4044 C   0  0  0  0  0  0  0  0  0  0  0  0
   -8.4500   -2.7535  -23.3595 H   0  0  0  0  0  0  0  0  0  0  0  0
   -9.6838   -2.1767  -24.4539 H   0  0  0  0  0  0  0  0  0  0  0  0
  -10.2829   -3.8162  -22.2473 H   0  0  0  0  0  0  0  0  0  0  0  0
  -12.2761   -2.7641  -21.5744 H   0  0  0  0  0  0  0  0  0  0  0  0
  -13.0200   -0.5787  -22.0391 H   0  0  0  0  0  0  0  0  0  0  0  0
  -11.8922    1.1797  -23.0821 H   0  0  0  0  0  0  0  0  0  0  0  0
   -9.5578    1.1919  -23.5955 H   0  0  0  0  0  0  0  0  0  0  0  0
  -10.1121   -0.0400  -24.7082 H   0  0  0  0  0  0  0  0  0  0  0  0
  1  2  2  0
  2  3  1  0
  3  4  1  0
  4  5  2  0
  5  6  1  0
  6  7  2  0
  7  8  1  0
  8  9  2  0
  9 10  1  0
 10 11  2  0
 11 12  1  0
 12 13  2  0
 12 14  1  0
 11 15  1  0
 10 16  1  0
  9 17  1  0
  7 18  1  0
  5 19  1  0
  3 20  1  0
  3 21  1  0
  2 22  1  0
 22 23  1  0
 23 24  1  0
 24 25  2  0
 25 26  1  0
 26 27  2  0
 27 28  1  0
 28 29  1  0
 28 30  1  0
 27 31  1  0
 26 32  1  0
 25 33  1  0
 24 34  1  0
 23 35  1  0
 23 36  1  0
 13  4  1  0
 28 22  1  0
 13  8  1  0
M  END
>  <cnnaffinities>  (79) 
[4.86206, 4.8417, 5.09564, 5.0956, 4.6476, 4.6475, 4.86209, 4.86105]

>  <score>  (79) 
4.86206

>  <index>  (79) 
81

>  <Smiles>  (79) 
O=C(C(c1c(nc(c2c(c(c(c(c12)[H])[H])[H])[H])[H])[H])([H])[H])N1C(C(=C(C(=C(C1([H])[H])[H])[H])[H])[H])([H])[H]

>  <h>  (79) 
<NA>

>  <Training>  (79) 
True

>  <Success>  (79) 
True

>  <enamine_searched>  (79) 
False

>  <enamine_id>  (79) 
nan

$$$$

     RDKit          3D

 54 57  0  0  0  0  0  0  0  0999 V2000
  -10.5973    0.5405  -25.0882 C   0  0  0  0  0  0  0  0  0  0  0  0
   -9.7931   -0.5973  -24.8998 O   0  0  0  0  0  0  0  0  0  0  0  0
   -8.4689   -0.4947  -25.2037 C   0  0  0  0  0  0  0  0  0  0  0  0
   -7.9292    0.5369  -25.9782 C   0  0  0  0  0  0  0  0  0  0  0  0
   -6.5625    0.5519  -26.2423 C   0  0  0  0  0  0  0  0  0  0  0  0
   -5.7536   -0.4512  -25.7256 C   0  0  0  0  0  0  0  0  0  0  0  0
   -6.3138   -1.4615  -24.9455 C   0  0  0  0  0  0  0  0  0  0  0  0
   -7.6711   -1.5279  -24.6786 C   0  0  0  0  0  0  0  0  0  0  0  0
   -8.3142   -2.6444  -23.8392 C   0  0  1  0  0  0  0  0  0  0  0  0
   -9.1524   -3.6338  -24.6813 C   0  0  0  0  0  0  0  0  0  0  0  0
   -8.4144   -4.8456  -25.2663 C   0  0  1  0  0  0  0  0  0  0  0  0
   -7.5133   -4.5252  -26.4636 C   0  0  0  0  0  0  0  0  0  0  0  0
   -7.0783   -5.4412  -26.8826 H   0  0  0  0  0  0  0  0  0  0  0  0
   -8.0835   -4.0345  -27.2607 H   0  0  0  0  0  0  0  0  0  0  0  0
   -6.6889   -3.8571  -26.1949 H   0  0  0  0  0  0  0  0  0  0  0  0
   -7.6801   -5.5388  -24.1177 C   0  0  0  0  0  0  0  0  0  0  0  0
   -6.7245   -4.5939  -23.4050 C   0  0  0  0  0  0  0  0  0  0  0  0
   -7.3697   -3.3533  -22.9658 N   0  0  0  0  0  0  0  0  0  0  0  0
   -6.7563   -2.7496  -21.8851 C   0  0  0  0  0  0  0  0  0  0  0  0
   -5.7562   -3.2277  -21.3785 O   0  0  0  0  0  0  0  0  0  0  0  0
   -7.3994   -1.4807  -21.2948 C   0  0  0  0  0  0  0  0  0  0  0  0
   -6.5764   -0.8505  -20.1965 C   0  0  0  0  0  0  0  0  0  0  0  0
   -6.8808   -1.0647  -18.8794 C   0  0  0  0  0  0  0  0  0  0  0  0
   -6.2100   -0.5531  -17.8079 N   0  0  0  0  0  0  0  0  0  0  0  0
   -5.1738    0.2072  -18.0723 C   0  0  0  0  0  0  0  0  0  0  0  0
   -4.7280    0.5148  -19.3853 C   0  0  0  0  0  0  0  0  0  0  0  0
   -3.6038    1.3459  -19.6218 C   0  0  0  0  0  0  0  0  0  0  0  0
   -3.2021    1.6247  -20.8982 C   0  0  0  0  0  0  0  0  0  0  0  0
   -3.9097    1.0843  -21.9976 C   0  0  0  0  0  0  0  0  0  0  0  0
   -5.0029    0.2781  -21.7967 C   0  0  0  0  0  0  0  0  0  0  0  0
   -5.4443   -0.0292  -20.4836 C   0  0  0  0  0  0  0  0  0  0  0  0
   -5.5425   -0.1258  -22.6518 H   0  0  0  0  0  0  0  0  0  0  0  0
   -3.5888    1.3193  -23.0086 H   0  0  0  0  0  0  0  0  0  0  0  0
   -2.3457    2.2684  -21.0785 H   0  0  0  0  0  0  0  0  0  0  0  0
   -3.0778    1.7615  -18.7638 H   0  0  0  0  0  0  0  0  0  0  0  0
   -4.6275    0.6198  -17.2204 H   0  0  0  0  0  0  0  0  0  0  0  0
   -7.7334   -1.6854  -18.6058 H   0  0  0  0  0  0  0  0  0  0  0  0
   -7.6091   -0.7644  -22.0991 H   0  0  0  0  0  0  0  0  0  0  0  0
   -8.3740   -1.7809  -20.8860 H   0  0  0  0  0  0  0  0  0  0  0  0
   -5.8548   -4.3831  -24.0470 H   0  0  0  0  0  0  0  0  0  0  0  0
   -6.3256   -5.0590  -22.5033 H   0  0  0  0  0  0  0  0  0  0  0  0
   -7.1165   -6.4075  -24.4865 H   0  0  0  0  0  0  0  0  0  0  0  0
   -8.4179   -5.9123  -23.3961 H   0  0  0  0  0  0  0  0  0  0  0  0
   -9.1885   -5.5386  -25.6281 H   0  0  0  0  0  0  0  0  0  0  0  0
   -9.9443   -4.0209  -24.0266 H   0  0  0  0  0  0  0  0  0  0  0  0
   -9.6371   -3.0599  -25.4758 H   0  0  0  0  0  0  0  0  0  0  0  0
   -9.0399   -2.1506  -23.1801 H   0  0  0  0  0  0  0  0  0  0  0  0
   -5.6815   -2.2469  -24.5487 H   0  0  0  0  0  0  0  0  0  0  0  0
   -4.6882   -0.4688  -25.9228 H   0  0  0  0  0  0  0  0  0  0  0  0
   -6.1364    1.3469  -26.8515 H   0  0  0  0  0  0  0  0  0  0  0  0
   -8.5619    1.3241  -26.3823 H   0  0  0  0  0  0  0  0  0  0  0  0
  -11.6238    0.1943  -24.9475 H   0  0  0  0  0  0  0  0  0  0  0  0
  -10.3910    1.3443  -24.3698 H   0  0  0  0  0  0  0  0  0  0  0  0
  -10.4740    0.9676  -26.0876 H   0  0  0  0  0  0  0  0  0  0  0  0
  1  2  1  0
  2  3  1  0
  3  4  2  0
  4  5  1  0
  5  6  2  0
  6  7  1  0
  7  8  2  0
  8  9  1  0
  9 10  1  0
 10 11  1  0
 11 12  1  0
 12 13  1  0
 12 14  1  0
 12 15  1  0
 11 16  1  0
 16 17  1  0
 17 18  1  0
 18 19  1  0
 19 20  2  0
 19 21  1  0
 21 22  1  0
 22 23  2  0
 23 24  1  0
 24 25  2  0
 25 26  1  0
 26 27  2  0
 27 28  1  0
 28 29  2  0
 29 30  1  0
 30 31  2  0
 30 32  1  0
 29 33  1  0
 28 34  1  0
 27 35  1  0
 25 36  1  0
 23 37  1  0
 21 38  1  0
 21 39  1  0
 17 40  1  0
 17 41  1  0
 16 42  1  0
 16 43  1  0
 11 44  1  6
 10 45  1  0
 10 46  1  0
  9 47  1  1
  7 48  1  0
  6 49  1  0
  5 50  1  0
  4 51  1  0
  1 52  1  0
  1 53  1  0
  1 54  1  0
  8  3  1  0
 18  9  1  0
 31 22  1  0
 31 26  1  0
M  END
>  <cnnaffinities>  (80) 
[5.60769, 5.42353, 5.62438, 5.60364, 5.73065]

>  <score>  (80) 
5.60769

>  <index>  (80) 
82

>  <Smiles>  (80) 
C(Oc1c(c(c(c(c1[C@]1(C([C@@](C([H])([H])[H])(C(C(N1C(=O)C(c1c(nc(c2c(c(c(c(c12)[H])[H])[H])[H])[H])[H])([H])[H])([H])[H])([H])[H])[H])([H])[H])[H])[H])[H])[H])[H])([H])([H])[H]

>  <h>  (80) 
<NA>

>  <Training>  (80) 
True

>  <Success>  (80) 
True

>  <enamine_searched>  (80) 
False

>  <enamine_id>  (80) 
nan

$$$$

     RDKit          3D

 46 50  0  0  0  0  0  0  0  0999 V2000
   -3.6260   -1.0749  -25.3568 N   0  0  0  0  0  0  0  0  0  0  0  0
   -4.5218   -2.0122  -26.3777 S   0  0  0  0  0  0  0  0  0  0  0  0
   -4.3055   -3.3706  -25.9215 O   0  0  0  0  0  0  0  0  0  0  0  0
   -4.1897   -1.5676  -27.7174 O   0  0  0  0  0  0  0  0  0  0  0  0
   -6.2247   -1.5897  -26.0858 C   0  0  0  0  0  0  0  0  0  0  0  0
   -6.9802   -0.9924  -27.0942 C   0  0  0  0  0  0  0  0  0  0  0  0
   -8.2844   -0.6211  -26.8254 C   0  0  0  0  0  0  0  0  0  0  0  0
   -8.8195   -0.8196  -25.5476 C   0  0  0  0  0  0  0  0  0  0  0  0
   -8.0821   -1.4607  -24.5549 C   0  0  0  0  0  0  0  0  0  0  0  0
   -6.7674   -1.8238  -24.8303 C   0  0  0  0  0  0  0  0  0  0  0  0
   -6.1643   -2.2990  -24.0600 H   0  0  0  0  0  0  0  0  0  0  0  0
   -8.6804   -1.6890  -23.1807 C   0  0  1  0  0  0  0  0  0  0  0  0
  -10.2136   -1.5969  -23.2303 C   0  0  0  0  0  0  0  0  0  0  0  0
  -10.6473   -0.3861  -24.0396 C   0  0  0  0  0  0  0  0  0  0  0  0
  -10.0734   -0.3637  -25.3357 O   0  0  0  0  0  0  0  0  0  0  0  0
  -10.3894    0.5453  -23.5225 H   0  0  0  0  0  0  0  0  0  0  0  0
  -11.7252   -0.4201  -24.2239 H   0  0  0  0  0  0  0  0  0  0  0  0
  -10.5936   -1.5374  -22.2063 H   0  0  0  0  0  0  0  0  0  0  0  0
  -10.6103   -2.5184  -23.6807 H   0  0  0  0  0  0  0  0  0  0  0  0
   -8.2605   -2.9271  -22.5735 N   0  0  0  0  0  0  0  0  0  0  0  0
   -7.4708   -2.7904  -21.4749 C   0  0  0  0  0  0  0  0  0  0  0  0
   -6.8996   -3.6586  -20.8616 O   0  0  0  0  0  0  0  0  0  0  0  0
   -7.4055   -1.4025  -21.2128 N   0  0  0  0  0  0  0  0  0  0  0  0
   -6.5917   -0.8330  -20.1938 C   0  0  0  0  0  0  0  0  0  0  0  0
   -6.9038   -1.0704  -18.8799 C   0  0  0  0  0  0  0  0  0  0  0  0
   -6.2227   -0.5506  -17.8296 N   0  0  0  0  0  0  0  0  0  0  0  0
   -5.1857    0.2058  -18.0976 C   0  0  0  0  0  0  0  0  0  0  0  0
   -4.7353    0.5148  -19.4103 C   0  0  0  0  0  0  0  0  0  0  0  0
   -3.6009    1.3410  -19.6382 C   0  0  0  0  0  0  0  0  0  0  0  0
   -3.1840    1.6043  -20.9128 C   0  0  0  0  0  0  0  0  0  0  0  0
   -3.8785    1.0466  -22.0113 C   0  0  0  0  0  0  0  0  0  0  0  0
   -4.9771    0.2488  -21.8195 C   0  0  0  0  0  0  0  0  0  0  0  0
   -5.4477   -0.0259  -20.5026 C   0  0  0  0  0  0  0  0  0  0  0  0
   -5.5158   -0.1678  -22.6700 H   0  0  0  0  0  0  0  0  0  0  0  0
   -3.5428    1.2658  -23.0207 H   0  0  0  0  0  0  0  0  0  0  0  0
   -2.3237    2.2453  -21.0858 H   0  0  0  0  0  0  0  0  0  0  0  0
   -3.0821    1.7564  -18.7794 H   0  0  0  0  0  0  0  0  0  0  0  0
   -4.6403    0.6083  -17.2458 H   0  0  0  0  0  0  0  0  0  0  0  0
   -7.7539   -1.6970  -18.6215 H   0  0  0  0  0  0  0  0  0  0  0  0
   -8.0981   -0.6743  -22.1807 C   0  0  0  0  0  0  0  0  0  0  0  0
   -8.2088    0.5269  -22.2172 O   0  0  0  0  0  0  0  0  0  0  0  0
   -8.4446   -3.8304  -22.9788 H   0  0  0  0  0  0  0  0  0  0  0  0
   -8.9070   -0.1670  -27.5879 H   0  0  0  0  0  0  0  0  0  0  0  0
   -6.5326   -0.8201  -28.0688 H   0  0  0  0  0  0  0  0  0  0  0  0
   -3.7416   -0.0862  -25.5463 H   0  0  0  0  0  0  0  0  0  0  0  0
   -3.7125   -1.3733  -24.3921 H   0  0  0  0  0  0  0  0  0  0  0  0
  1  2  1  0
  2  3  2  0
  2  4  2  0
  2  5  1  0
  5  6  2  0
  6  7  1  0
  7  8  2  0
  8  9  1  0
  9 10  2  0
 10 11  1  0
  9 12  1  0
 12 13  1  0
 13 14  1  0
 14 15  1  0
 14 16  1  0
 14 17  1  0
 13 18  1  0
 13 19  1  0
 12 20  1  1
 20 21  1  0
 21 22  2  0
 21 23  1  0
 23 24  1  0
 24 25  2  0
 25 26  1  0
 26 27  2  0
 27 28  1  0
 28 29  2  0
 29 30  1  0
 30 31  2  0
 31 32  1  0
 32 33  2  0
 32 34  1  0
 31 35  1  0
 30 36  1  0
 29 37  1  0
 27 38  1  0
 25 39  1  0
 23 40  1  0
 40 41  2  0
 20 42  1  0
  7 43  1  0
  6 44  1  0
  1 45  1  0
  1 46  1  0
 10  5  1  0
 40 12  1  0
 15  8  1  0
 33 24  1  0
 33 28  1  0
M  END
>  <cnnaffinities>  (81) 
[5.35591, 5.34483]

>  <score>  (81) 
5.35591

>  <index>  (81) 
83

>  <Smiles>  (81) 
N(S(=O)(=O)c1c(c(c2c(c1[H])[C@@]1(C(C(O2)([H])[H])([H])[H])N(C(=O)N(c2c(nc(c3c(c(c(c(c23)[H])[H])[H])[H])[H])[H])C1=O)[H])[H])[H])([H])[H]

>  <h>  (81) 
<NA>

>  <Training>  (81) 
True

>  <Success>  (81) 
True

>  <enamine_searched>  (81) 
False

>  <enamine_id>  (81) 
nan

$$$$

     RDKit          3D

 63 68  0  0  0  0  0  0  0  0999 V2000
   -8.2550   -3.8359  -23.8548 C   0  0  0  0  0  0  0  0  0  0  0  0
   -8.4878   -3.0107  -22.5899 C   0  0  1  0  0  0  0  0  0  0  0  0
   -7.1716   -2.4154  -22.0509 C   0  0  0  0  0  0  0  0  0  0  0  0
   -7.6035   -1.2847  -21.2602 N   0  0  0  0  0  0  0  0  0  0  0  0
   -6.8076   -0.7384  -20.2107 C   0  0  0  0  0  0  0  0  0  0  0  0
   -7.1150   -0.9955  -18.8955 C   0  0  0  0  0  0  0  0  0  0  0  0
   -6.3923   -0.5549  -17.8331 N   0  0  0  0  0  0  0  0  0  0  0  0
   -5.3307    0.1767  -18.0820 C   0  0  0  0  0  0  0  0  0  0  0  0
   -4.8807    0.5083  -19.3926 C   0  0  0  0  0  0  0  0  0  0  0  0
   -3.7431    1.3351  -19.6223 C   0  0  0  0  0  0  0  0  0  0  0  0
   -3.3401    1.6270  -20.8979 C   0  0  0  0  0  0  0  0  0  0  0  0
   -4.0466    1.1058  -22.0005 C   0  0  0  0  0  0  0  0  0  0  0  0
   -5.1431    0.2933  -21.8047 C   0  0  0  0  0  0  0  0  0  0  0  0
   -5.6137    0.0027  -20.4957 C   0  0  0  0  0  0  0  0  0  0  0  0
   -5.6900   -0.0769  -22.6653 H   0  0  0  0  0  0  0  0  0  0  0  0
   -3.7425    1.3662  -23.0103 H   0  0  0  0  0  0  0  0  0  0  0  0
   -2.4850    2.2776  -21.0684 H   0  0  0  0  0  0  0  0  0  0  0  0
   -3.2035    1.7340  -18.7677 H   0  0  0  0  0  0  0  0  0  0  0  0
   -4.7574    0.5448  -17.2264 H   0  0  0  0  0  0  0  0  0  0  0  0
   -7.9787   -1.6100  -18.6533 H   0  0  0  0  0  0  0  0  0  0  0  0
   -8.8807   -0.8721  -21.5705 C   0  0  0  0  0  0  0  0  0  0  0  0
   -9.4554    0.0574  -21.0385 O   0  0  0  0  0  0  0  0  0  0  0  0
   -9.4601   -1.7935  -22.6925 C   0  0  1  0  0  0  0  0  0  0  0  0
   -9.3354   -1.1324  -24.0904 C   0  0  0  0  0  0  0  0  0  0  0  0
  -10.2646   -0.0359  -24.3060 N   0  0  0  0  0  0  0  0  0  0  0  0
   -9.7986    1.0771  -25.1229 C   0  0  0  0  0  0  0  0  0  0  0  0
   -8.5935    1.7302  -24.4259 C   0  0  0  0  0  0  0  0  0  0  0  0
   -7.4732    1.7945  -24.9047 O   0  0  0  0  0  0  0  0  0  0  0  0
   -8.9271    2.1568  -23.1804 N   0  0  0  0  0  0  0  0  0  0  0  0
   -7.9808    2.5186  -22.1523 C   0  0  0  0  0  0  0  0  0  0  0  0
   -7.5065    3.9481  -22.2370 C   0  0  0  0  0  0  0  0  0  0  0  0
   -8.5525    4.8376  -22.2203 F   0  0  0  0  0  0  0  0  0  0  0  0
   -6.3025    4.3409  -23.0279 C   0  0  0  0  0  0  0  0  0  0  0  0
   -6.2794    4.3520  -21.5017 C   0  0  0  0  0  0  0  0  0  0  0  0
   -5.7052    3.5795  -20.9812 H   0  0  0  0  0  0  0  0  0  0  0  0
   -6.3245    5.3165  -21.0066 H   0  0  0  0  0  0  0  0  0  0  0  0
   -5.7880    3.5249  -23.5410 H   0  0  0  0  0  0  0  0  0  0  0  0
   -6.3206    5.3004  -23.5495 H   0  0  0  0  0  0  0  0  0  0  0  0
   -8.4804    2.3243  -21.1968 H   0  0  0  0  0  0  0  0  0  0  0  0
   -7.1172    1.8465  -22.2068 H   0  0  0  0  0  0  0  0  0  0  0  0
   -9.8837    2.0229  -22.8893 H   0  0  0  0  0  0  0  0  0  0  0  0
   -9.5066    0.7665  -26.1321 H   0  0  0  0  0  0  0  0  0  0  0  0
  -10.6284    1.7901  -25.1745 H   0  0  0  0  0  0  0  0  0  0  0  0
  -11.5122    0.0128  -23.7583 C   0  0  0  0  0  0  0  0  0  0  0  0
  -12.2658    0.9664  -23.9277 O   0  0  0  0  0  0  0  0  0  0  0  0
  -11.9100   -1.1556  -22.9247 C   0  0  0  0  0  0  0  0  0  0  0  0
  -13.2589   -1.2667  -22.5843 C   0  0  0  0  0  0  0  0  0  0  0  0
  -13.6863   -2.2640  -21.7363 C   0  0  0  0  0  0  0  0  0  0  0  0
  -12.7263   -3.1349  -21.2401 C   0  0  0  0  0  0  0  0  0  0  0  0
  -13.1109   -4.0243  -20.3107 F   0  0  0  0  0  0  0  0  0  0  0  0
  -11.3945   -3.0819  -21.6130 C   0  0  0  0  0  0  0  0  0  0  0  0
  -10.9436   -2.0572  -22.4483 C   0  0  0  0  0  0  0  0  0  0  0  0
  -10.7163   -3.8131  -21.1889 H   0  0  0  0  0  0  0  0  0  0  0  0
  -14.7234   -2.3824  -21.4399 H   0  0  0  0  0  0  0  0  0  0  0  0
  -13.9482   -0.5277  -22.9778 H   0  0  0  0  0  0  0  0  0  0  0  0
   -9.5091   -1.9053  -24.8476 H   0  0  0  0  0  0  0  0  0  0  0  0
   -8.3194   -0.7480  -24.2279 H   0  0  0  0  0  0  0  0  0  0  0  0
   -6.5155   -2.1107  -22.8817 H   0  0  0  0  0  0  0  0  0  0  0  0
   -6.6089   -3.1200  -21.4325 H   0  0  0  0  0  0  0  0  0  0  0  0
   -8.8738   -3.6718  -21.8089 H   0  0  0  0  0  0  0  0  0  0  0  0
   -7.7591   -3.2361  -24.6278 H   0  0  0  0  0  0  0  0  0  0  0  0
   -7.6030   -4.6908  -23.6454 H   0  0  0  0  0  0  0  0  0  0  0  0
   -9.1867   -4.2216  -24.2824 H   0  0  0  0  0  0  0  0  0  0  0  0
  1  2  1  0
  2  3  1  0
  3  4  1  0
  4  5  1  0
  5  6  2  0
  6  7  1  0
  7  8  2  0
  8  9  1  0
  9 10  2  0
 10 11  1  0
 11 12  2  0
 12 13  1  0
 13 14  2  0
 13 15  1  0
 12 16  1  0
 11 17  1  0
 10 18  1  0
  8 19  1  0
  6 20  1  0
  4 21  1  0
 21 22  2  0
 21 23  1  0
 23 24  1  6
 24 25  1  0
 25 26  1  0
 26 27  1  0
 27 28  2  0
 27 29  1  0
 29 30  1  0
 30 31  1  0
 31 32  1  0
 31 33  1  0
 33 34  1  0
 34 35  1  0
 34 36  1  0
 33 37  1  0
 33 38  1  0
 30 39  1  0
 30 40  1  0
 29 41  1  0
 26 42  1  0
 26 43  1  0
 25 44  1  0
 44 45  2  0
 44 46  1  0
 46 47  2  0
 47 48  1  0
 48 49  2  0
 49 50  1  0
 49 51  1  0
 51 52  2  0
 51 53  1  0
 48 54  1  0
 47 55  1  0
 24 56  1  0
 24 57  1  0
  3 58  1  0
  3 59  1  0
  2 60  1  1
  1 61  1  0
  1 62  1  0
  1 63  1  0
 23  2  1  0
 34 31  1  0
 52 46  1  0
 14  5  1  0
 52 23  1  0
 14  9  1  0
M  END
>  <cnnaffinities>  (82) 
[6.78248]

>  <score>  (82) 
6.78248

>  <index>  (82) 
84

>  <Smiles>  (82) 
C([C@]1(C(N(c2c(nc(c3c(c(c(c(c23)[H])[H])[H])[H])[H])[H])C(=O)[C@]21C(N(C(C(=O)N(C(C1(F)C(C1([H])[H])([H])[H])([H])[H])[H])([H])[H])C(=O)c1c(c(c(F)c(c21)[H])[H])[H])([H])[H])([H])[H])[H])([H])([H])[H]

>  <h>  (82) 
<NA>

>  <Training>  (82) 
True

>  <Success>  (82) 
True

>  <enamine_searched>  (82) 
False

>  <enamine_id>  (82) 
nan

$$$$

     RDKit          3D

 57 62  0  0  0  0  0  0  0  0999 V2000
   -8.9102    1.0576  -29.3914 C   0  0  0  0  0  0  0  0  0  0  0  0
   -8.9217    1.3861  -27.9787 N   0  0  0  0  0  0  0  0  0  0  0  0
   -8.1427    0.6490  -27.1403 C   0  0  0  0  0  0  0  0  0  0  0  0
   -7.4160   -0.2570  -27.5188 O   0  0  0  0  0  0  0  0  0  0  0  0
   -8.2250    1.0563  -25.6696 C   0  0  0  0  0  0  0  0  0  0  0  0
   -9.0896    0.1831  -24.9064 N   0  0  0  0  0  0  0  0  0  0  0  0
   -8.6159   -1.1353  -24.5349 C   0  0  0  0  0  0  0  0  0  0  0  0
   -8.9442   -1.4839  -23.0632 C   0  0  2  0  0  0  0  0  0  0  0  0
   -8.1504   -0.5670  -22.1057 C   0  0  0  0  0  0  0  0  0  0  0  0
   -8.1736    0.6442  -22.0816 O   0  0  0  0  0  0  0  0  0  0  0  0
   -7.3933   -1.3400  -21.2460 N   0  0  0  0  0  0  0  0  0  0  0  0
   -6.5988   -0.8064  -20.2051 C   0  0  0  0  0  0  0  0  0  0  0  0
   -6.9047   -1.0682  -18.8915 C   0  0  0  0  0  0  0  0  0  0  0  0
   -6.2316   -0.5675  -17.8255 N   0  0  0  0  0  0  0  0  0  0  0  0
   -5.1962    0.1996  -18.0816 C   0  0  0  0  0  0  0  0  0  0  0  0
   -4.7423    0.5142  -19.3950 C   0  0  0  0  0  0  0  0  0  0  0  0
   -3.6100    1.3436  -19.6154 C   0  0  0  0  0  0  0  0  0  0  0  0
   -3.1863    1.6154  -20.8882 C   0  0  0  0  0  0  0  0  0  0  0  0
   -3.8629    1.0643  -21.9979 C   0  0  0  0  0  0  0  0  0  0  0  0
   -4.9576    0.2588  -21.8113 C   0  0  0  0  0  0  0  0  0  0  0  0
   -5.4427   -0.0137  -20.4990 C   0  0  0  0  0  0  0  0  0  0  0  0
   -5.4694   -0.1641  -22.6690 H   0  0  0  0  0  0  0  0  0  0  0  0
   -3.5191    1.2846  -23.0051 H   0  0  0  0  0  0  0  0  0  0  0  0
   -2.3279    2.2601  -21.0565 H   0  0  0  0  0  0  0  0  0  0  0  0
   -3.0961    1.7604  -18.7545 H   0  0  0  0  0  0  0  0  0  0  0  0
   -4.6500    0.6053  -17.2299 H   0  0  0  0  0  0  0  0  0  0  0  0
   -7.7663   -1.6891  -18.6488 H   0  0  0  0  0  0  0  0  0  0  0  0
   -7.6246   -2.7522  -21.3849 C   0  0  0  0  0  0  0  0  0  0  0  0
   -8.4425   -2.8757  -22.6584 C   0  0  0  0  0  0  0  0  0  0  0  0
   -8.0560   -3.9477  -23.6460 C   0  0  0  0  0  0  0  0  0  0  0  0
   -9.2958   -4.0915  -22.8175 C   0  0  0  0  0  0  0  0  0  0  0  0
   -9.2794   -4.8033  -21.9971 H   0  0  0  0  0  0  0  0  0  0  0  0
  -10.2601   -3.9739  -23.3012 H   0  0  0  0  0  0  0  0  0  0  0  0
   -8.1517   -3.7247  -24.7043 H   0  0  0  0  0  0  0  0  0  0  0  0
   -7.2039   -4.5801  -23.4029 H   0  0  0  0  0  0  0  0  0  0  0  0
   -8.1908   -3.1308  -20.5321 H   0  0  0  0  0  0  0  0  0  0  0  0
   -6.6787   -3.2998  -21.4395 H   0  0  0  0  0  0  0  0  0  0  0  0
  -10.4448   -1.2440  -22.9058 C   0  0  0  0  0  0  0  0  0  0  0  0
  -11.2028   -1.9861  -22.0014 C   0  0  0  0  0  0  0  0  0  0  0  0
  -12.5752   -1.8125  -21.9629 C   0  0  0  0  0  0  0  0  0  0  0  0
  -13.5078   -2.9594  -21.0460 Cl  0  0  0  0  0  0  0  0  0  0  0  0
  -13.2091   -0.7539  -22.6073 C   0  0  0  0  0  0  0  0  0  0  0  0
  -12.4439    0.0432  -23.4362 C   0  0  0  0  0  0  0  0  0  0  0  0
  -11.0989   -0.2456  -23.6429 C   0  0  0  0  0  0  0  0  0  0  0  0
  -10.3588    0.5946  -24.6320 C   0  0  0  0  0  0  0  0  0  0  0  0
  -10.8410    1.5961  -25.1488 O   0  0  0  0  0  0  0  0  0  0  0  0
  -12.8601    0.8954  -23.9561 H   0  0  0  0  0  0  0  0  0  0  0  0
  -14.2699   -0.5861  -22.4562 H   0  0  0  0  0  0  0  0  0  0  0  0
  -10.7418   -2.7307  -21.3642 H   0  0  0  0  0  0  0  0  0  0  0  0
   -9.0918   -1.8868  -25.1769 H   0  0  0  0  0  0  0  0  0  0  0  0
   -7.5380   -1.1787  -24.7070 H   0  0  0  0  0  0  0  0  0  0  0  0
   -8.6142    2.0721  -25.5642 H   0  0  0  0  0  0  0  0  0  0  0  0
   -7.2148    0.9912  -25.2454 H   0  0  0  0  0  0  0  0  0  0  0  0
   -9.7397    1.8359  -27.5912 H   0  0  0  0  0  0  0  0  0  0  0  0
   -9.6153    1.6937  -29.9307 H   0  0  0  0  0  0  0  0  0  0  0  0
   -9.1761    0.0083  -29.5567 H   0  0  0  0  0  0  0  0  0  0  0  0
   -7.9108    1.2164  -29.7981 H   0  0  0  0  0  0  0  0  0  0  0  0
  1  2  1  0
  2  3  1  0
  3  4  2  0
  3  5  1  0
  5  6  1  0
  6  7  1  0
  8  7  1  6
  8  9  1  0
  9 10  2  0
  9 11  1  0
 11 12  1  0
 12 13  2  0
 13 14  1  0
 14 15  2  0
 15 16  1  0
 16 17  2  0
 17 18  1  0
 18 19  2  0
 19 20  1  0
 20 21  2  0
 20 22  1  0
 19 23  1  0
 18 24  1  0
 17 25  1  0
 15 26  1  0
 13 27  1  0
 11 28  1  0
 28 29  1  0
 29 30  1  0
 30 31  1  0
 31 32  1  0
 31 33  1  0
 30 34  1  0
 30 35  1  0
 28 36  1  0
 28 37  1  0
  8 38  1  0
 38 39  2  0
 39 40  1  0
 40 41  1  0
 40 42  2  0
 42 43  1  0
 43 44  2  0
 44 45  1  0
 45 46  2  0
 43 47  1  0
 42 48  1  0
 39 49  1  0
  7 50  1  0
  7 51  1  0
  5 52  1  0
  5 53  1  0
  2 54  1  0
  1 55  1  0
  1 56  1  0
  1 57  1  0
 45  6  1  0
 29  8  1  0
 44 38  1  0
 21 12  1  0
 31 29  1  0
 21 16  1  0
M  END
>  <cnnaffinities>  (83) 
[5.95253, 6.27122]

>  <score>  (83) 
5.95253

>  <index>  (83) 
85

>  <Smiles>  (83) 
C(N(C(=O)C(N1C([C@@]2(C(=O)N(c3c(nc(c4c(c(c(c(c34)[H])[H])[H])[H])[H])[H])C(C32C(C3([H])[H])([H])[H])([H])[H])c2c(c(Cl)c(c(c2C1=O)[H])[H])[H])([H])[H])([H])[H])[H])([H])([H])[H]

>  <h>  (83) 
<NA>

>  <Training>  (83) 
True

>  <Success>  (83) 
True

>  <enamine_searched>  (83) 
False

>  <enamine_id>  (83) 
nan

$$$$

     RDKit          3D

 43 45  0  0  0  0  0  0  0  0999 V2000
   -8.5395   -5.5584  -25.7863 C   0  0  0  0  0  0  0  0  0  0  0  0
   -9.0489   -5.4363  -24.3504 C   0  0  1  0  0  0  0  0  0  0  0  0
   -8.0229   -5.8737  -23.3102 C   0  0  0  0  0  0  0  0  0  0  0  0
   -6.9354   -4.8305  -23.0929 C   0  0  0  0  0  0  0  0  0  0  0  0
   -7.5152   -3.5409  -22.7107 N   0  0  0  0  0  0  0  0  0  0  0  0
   -6.7569   -2.7457  -21.8632 C   0  0  0  0  0  0  0  0  0  0  0  0
   -5.6250   -3.0585  -21.5417 O   0  0  0  0  0  0  0  0  0  0  0  0
   -7.4128   -1.4736  -21.2703 C   0  0  0  0  0  0  0  0  0  0  0  0
   -6.5796   -0.8308  -20.1833 C   0  0  0  0  0  0  0  0  0  0  0  0
   -6.8739   -1.0470  -18.8634 C   0  0  0  0  0  0  0  0  0  0  0  0
   -6.1949   -0.5432  -17.7958 N   0  0  0  0  0  0  0  0  0  0  0  0
   -5.1606    0.2192  -18.0641 C   0  0  0  0  0  0  0  0  0  0  0  0
   -4.7231    0.5287  -19.3791 C   0  0  0  0  0  0  0  0  0  0  0  0
   -3.5950    1.3562  -19.6205 C   0  0  0  0  0  0  0  0  0  0  0  0
   -3.1918    1.6328  -20.8994 C   0  0  0  0  0  0  0  0  0  0  0  0
   -3.9018    1.0893  -21.9926 C   0  0  0  0  0  0  0  0  0  0  0  0
   -4.9981    0.2877  -21.7854 C   0  0  0  0  0  0  0  0  0  0  0  0
   -5.4451   -0.0134  -20.4733 C   0  0  0  0  0  0  0  0  0  0  0  0
   -5.5266   -0.1306  -22.6357 H   0  0  0  0  0  0  0  0  0  0  0  0
   -3.5776    1.3126  -23.0050 H   0  0  0  0  0  0  0  0  0  0  0  0
   -2.3304    2.2714  -21.0849 H   0  0  0  0  0  0  0  0  0  0  0  0
   -3.0584    1.7720  -18.7701 H   0  0  0  0  0  0  0  0  0  0  0  0
   -4.6055    0.6262  -17.2157 H   0  0  0  0  0  0  0  0  0  0  0  0
   -7.7212   -1.6714  -18.5874 H   0  0  0  0  0  0  0  0  0  0  0  0
   -8.3924   -1.7513  -20.8551 H   0  0  0  0  0  0  0  0  0  0  0  0
   -7.6217   -0.7475  -22.0688 H   0  0  0  0  0  0  0  0  0  0  0  0
   -8.5388   -2.9939  -23.6119 C   0  0  1  0  0  0  0  0  0  0  0  0
   -7.9408   -2.2903  -24.8400 C   0  0  0  0  0  0  0  0  0  0  0  0
   -8.7278   -1.9764  -25.5352 H   0  0  0  0  0  0  0  0  0  0  0  0
   -7.3896   -1.3887  -24.5506 H   0  0  0  0  0  0  0  0  0  0  0  0
   -7.2486   -2.9315  -25.3935 H   0  0  0  0  0  0  0  0  0  0  0  0
   -9.5870   -4.0595  -23.9664 C   0  0  0  0  0  0  0  0  0  0  0  0
  -10.2596   -4.1741  -23.1090 H   0  0  0  0  0  0  0  0  0  0  0  0
  -10.2110   -3.6819  -24.7831 H   0  0  0  0  0  0  0  0  0  0  0  0
   -9.0788   -2.2349  -23.0419 H   0  0  0  0  0  0  0  0  0  0  0  0
   -6.2991   -4.7531  -23.9875 H   0  0  0  0  0  0  0  0  0  0  0  0
   -6.2714   -5.1424  -22.2898 H   0  0  0  0  0  0  0  0  0  0  0  0
   -8.5184   -6.0607  -22.3531 H   0  0  0  0  0  0  0  0  0  0  0  0
   -7.5749   -6.8259  -23.6127 H   0  0  0  0  0  0  0  0  0  0  0  0
   -9.8978   -6.1191  -24.3042 H   0  0  0  0  0  0  0  0  0  0  0  0
   -8.3801   -6.6121  -26.0478 H   0  0  0  0  0  0  0  0  0  0  0  0
   -9.2668   -5.1516  -26.4967 H   0  0  0  0  0  0  0  0  0  0  0  0
   -7.5936   -5.0371  -25.9461 H   0  0  0  0  0  0  0  0  0  0  0  0
  1  2  1  0
  2  3  1  0
  3  4  1  0
  4  5  1  0
  5  6  1  0
  6  7  2  0
  6  8  1  0
  8  9  1  0
  9 10  2  0
 10 11  1  0
 11 12  2  0
 12 13  1  0
 13 14  2  0
 14 15  1  0
 15 16  2  0
 16 17  1  0
 17 18  2  0
 17 19  1  0
 16 20  1  0
 15 21  1  0
 14 22  1  0
 12 23  1  0
 10 24  1  0
  8 25  1  0
  8 26  1  0
  5 27  1  0
 27 28  1  0
 28 29  1  0
 28 30  1  0
 28 31  1  0
 27 32  1  0
 32 33  1  0
 32 34  1  0
 27 35  1  1
  4 36  1  0
  4 37  1  0
  3 38  1  0
  3 39  1  0
  2 40  1  6
  1 41  1  0
  1 42  1  0
  1 43  1  0
 32  2  1  0
 18  9  1  0
 18 13  1  0
M  END
>  <cnnaffinities>  (84) 
[5.06384, 4.93713, 4.95705, 4.89264]

>  <score>  (84) 
5.06384

>  <index>  (84) 
86

>  <Smiles>  (84) 
C([C@]1(C(C(N(C(=O)C(c2c(nc(c3c(c(c(c(c23)[H])[H])[H])[H])[H])[H])([H])[H])[C@@](C([H])([H])[H])(C1([H])[H])[H])([H])[H])([H])[H])[H])([H])([H])[H]

>  <h>  (84) 
<NA>

>  <Training>  (84) 
True

>  <Success>  (84) 
True

>  <enamine_searched>  (84) 
False

>  <enamine_id>  (84) 
nan

$$$$

     RDKit          3D

 59 64  0  0  0  0  0  0  0  0999 V2000
   -8.2509   -3.9938  -23.7248 C   0  0  0  0  0  0  0  0  0  0  0  0
   -8.4515   -3.1554  -22.4664 C   0  0  1  0  0  0  0  0  0  0  0  0
   -7.1145   -2.5357  -22.0073 C   0  0  0  0  0  0  0  0  0  0  0  0
   -7.5242   -1.3860  -21.2268 N   0  0  0  0  0  0  0  0  0  0  0  0
   -6.7310   -0.8091  -20.1986 C   0  0  0  0  0  0  0  0  0  0  0  0
   -7.0345   -1.0526  -18.8787 C   0  0  0  0  0  0  0  0  0  0  0  0
   -6.3136   -0.5941  -17.8230 N   0  0  0  0  0  0  0  0  0  0  0  0
   -5.2616    0.1446  -18.0820 C   0  0  0  0  0  0  0  0  0  0  0  0
   -4.8202    0.4701  -19.3941 C   0  0  0  0  0  0  0  0  0  0  0  0
   -3.6828    1.2927  -19.6142 C   0  0  0  0  0  0  0  0  0  0  0  0
   -3.2719    1.5867  -20.8842 C   0  0  0  0  0  0  0  0  0  0  0  0
   -3.9709    1.0475  -21.9890 C   0  0  0  0  0  0  0  0  0  0  0  0
   -5.0745    0.2474  -21.8012 C   0  0  0  0  0  0  0  0  0  0  0  0
   -5.5511   -0.0427  -20.4950 C   0  0  0  0  0  0  0  0  0  0  0  0
   -5.5982   -0.1727  -22.6566 H   0  0  0  0  0  0  0  0  0  0  0  0
   -3.6448    1.2934  -22.9963 H   0  0  0  0  0  0  0  0  0  0  0  0
   -2.4186    2.2408  -21.0500 H   0  0  0  0  0  0  0  0  0  0  0  0
   -3.1637    1.6936  -18.7468 H   0  0  0  0  0  0  0  0  0  0  0  0
   -4.6966    0.5269  -17.2292 H   0  0  0  0  0  0  0  0  0  0  0  0
   -7.8930   -1.6657  -18.6148 H   0  0  0  0  0  0  0  0  0  0  0  0
   -8.8317   -1.0148  -21.4689 C   0  0  0  0  0  0  0  0  0  0  0  0
   -9.3951   -0.0964  -20.9119 O   0  0  0  0  0  0  0  0  0  0  0  0
   -9.4324   -1.9380  -22.5729 C   0  0  1  0  0  0  0  0  0  0  0  0
   -9.2707   -1.2373  -23.9570 C   0  0  0  0  0  0  0  0  0  0  0  0
  -10.1240   -0.0750  -24.1199 N   0  0  0  0  0  0  0  0  0  0  0  0
   -9.6028    1.1393  -24.7345 C   0  0  0  0  0  0  0  0  0  0  0  0
   -8.7447    1.9107  -23.7922 C   0  0  0  0  0  0  0  0  0  0  0  0
   -9.1210    2.4952  -22.6106 C   0  0  0  0  0  0  0  0  0  0  0  0
   -7.9965    3.2337  -22.2065 C   0  0  0  0  0  0  0  0  0  0  0  0
   -6.9841    3.0851  -23.0528 N   0  0  0  0  0  0  0  0  0  0  0  0
   -7.4552    2.2690  -24.0125 N   0  0  0  0  0  0  0  0  0  0  0  0
   -6.5667    1.7561  -25.0336 C   0  0  0  0  0  0  0  0  0  0  0  0
   -6.7954    2.1518  -26.0310 H   0  0  0  0  0  0  0  0  0  0  0  0
   -6.6302    0.6615  -25.0598 H   0  0  0  0  0  0  0  0  0  0  0  0
   -5.5574    2.0566  -24.7540 H   0  0  0  0  0  0  0  0  0  0  0  0
   -7.8928    3.9125  -21.3728 H   0  0  0  0  0  0  0  0  0  0  0  0
  -10.0607    2.3627  -22.1020 H   0  0  0  0  0  0  0  0  0  0  0  0
   -9.0960    0.9677  -25.6949 H   0  0  0  0  0  0  0  0  0  0  0  0
  -10.4991    1.7172  -24.9604 H   0  0  0  0  0  0  0  0  0  0  0  0
  -11.4306   -0.0893  -23.7168 C   0  0  0  0  0  0  0  0  0  0  0  0
  -12.2231    0.7954  -24.0116 O   0  0  0  0  0  0  0  0  0  0  0  0
  -11.8596   -1.2477  -22.8689 C   0  0  0  0  0  0  0  0  0  0  0  0
  -13.2231   -1.3354  -22.5786 C   0  0  0  0  0  0  0  0  0  0  0  0
  -13.7026   -2.2901  -21.7117 C   0  0  0  0  0  0  0  0  0  0  0  0
  -12.7886   -3.2179  -21.2254 C   0  0  0  0  0  0  0  0  0  0  0  0
  -13.2500   -4.0984  -20.3231 F   0  0  0  0  0  0  0  0  0  0  0  0
  -11.4444   -3.2223  -21.5809 C   0  0  0  0  0  0  0  0  0  0  0  0
  -10.9314   -2.1757  -22.3581 C   0  0  0  0  0  0  0  0  0  0  0  0
  -10.7864   -3.9984  -21.1975 H   0  0  0  0  0  0  0  0  0  0  0  0
  -14.7444   -2.3247  -21.3986 H   0  0  0  0  0  0  0  0  0  0  0  0
  -13.8848   -0.6064  -23.0329 H   0  0  0  0  0  0  0  0  0  0  0  0
   -8.2378   -0.9034  -24.0760 H   0  0  0  0  0  0  0  0  0  0  0  0
   -9.5001   -1.9595  -24.7523 H   0  0  0  0  0  0  0  0  0  0  0  0
   -6.5084   -2.2400  -22.8794 H   0  0  0  0  0  0  0  0  0  0  0  0
   -6.5002   -3.2214  -21.4140 H   0  0  0  0  0  0  0  0  0  0  0  0
   -8.7953   -3.7987  -21.6479 H   0  0  0  0  0  0  0  0  0  0  0  0
   -7.5573   -4.8233  -23.5443 H   0  0  0  0  0  0  0  0  0  0  0  0
   -9.1931   -4.4025  -24.1002 H   0  0  0  0  0  0  0  0  0  0  0  0
   -7.8081   -3.3844  -24.5213 H   0  0  0  0  0  0  0  0  0  0  0  0
  1  2  1  0
  2  3  1  0
  3  4  1  0
  4  5  1  0
  5  6  2  0
  6  7  1  0
  7  8  2  0
  8  9  1  0
  9 10  2  0
 10 11  1  0
 11 12  2  0
 12 13  1  0
 13 14  2  0
 13 15  1  0
 12 16  1  0
 11 17  1  0
 10 18  1  0
  8 19  1  0
  6 20  1  0
  4 21  1  0
 21 22  2  0
 21 23  1  0
 23 24  1  6
 24 25  1  0
 25 26  1  0
 26 27  1  0
 27 28  2  0
 28 29  1  0
 29 30  2  0
 30 31  1  0
 31 32  1  0
 32 33  1  0
 32 34  1  0
 32 35  1  0
 29 36  1  0
 28 37  1  0
 26 38  1  0
 26 39  1  0
 25 40  1  0
 40 41  2  0
 40 42  1  0
 42 43  2  0
 43 44  1  0
 44 45  2  0
 45 46  1  0
 45 47  1  0
 47 48  2  0
 47 49  1  0
 44 50  1  0
 43 51  1  0
 24 52  1  0
 24 53  1  0
  3 54  1  0
  3 55  1  0
  2 56  1  1
  1 57  1  0
  1 58  1  0
  1 59  1  0
 23  2  1  0
 31 27  1  0
 48 42  1  0
 14  5  1  0
 48 23  1  0
 14  9  1  0
M  END
>  <cnnaffinities>  (85) 
[6.67017, 6.41286, 6.50327]

>  <score>  (85) 
6.67017

>  <index>  (85) 
87

>  <Smiles>  (85) 
C([C@]1(C(N(c2c(nc(c3c(c(c(c(c23)[H])[H])[H])[H])[H])[H])C(=O)[C@]21C(N(C(c1c(c(nn1C([H])([H])[H])[H])[H])([H])[H])C(=O)c1c(c(c(F)c(c21)[H])[H])[H])([H])[H])([H])[H])[H])([H])([H])[H]

>  <h>  (85) 
<NA>

>  <Training>  (85) 
True

>  <Success>  (85) 
True

>  <enamine_searched>  (85) 
False

>  <enamine_id>  (85) 
nan

$$$$

     RDKit          3D

 40 42  0  0  0  0  0  0  0  0999 V2000
   -8.4226    0.7625  -21.5748 O   0  0  0  0  0  0  0  0  0  0  0  0
   -8.5470   -0.4394  -21.7603 C   0  0  0  0  0  0  0  0  0  0  0  0
   -7.4825   -1.4216  -21.2634 C   0  0  0  0  0  0  0  0  0  0  0  0
   -6.6096   -0.8299  -20.1838 C   0  0  0  0  0  0  0  0  0  0  0  0
   -6.9074   -1.0486  -18.8650 C   0  0  0  0  0  0  0  0  0  0  0  0
   -6.2294   -0.5471  -17.7971 N   0  0  0  0  0  0  0  0  0  0  0  0
   -5.1882    0.2089  -18.0669 C   0  0  0  0  0  0  0  0  0  0  0  0
   -4.7533    0.5233  -19.3820 C   0  0  0  0  0  0  0  0  0  0  0  0
   -3.6233    1.3489  -19.6152 C   0  0  0  0  0  0  0  0  0  0  0  0
   -3.2287    1.6444  -20.8931 C   0  0  0  0  0  0  0  0  0  0  0  0
   -3.9508    1.1246  -21.9920 C   0  0  0  0  0  0  0  0  0  0  0  0
   -5.0515    0.3273  -21.7913 C   0  0  0  0  0  0  0  0  0  0  0  0
   -5.4838   -0.0002  -20.4777 C   0  0  0  0  0  0  0  0  0  0  0  0
   -5.6120   -0.0445  -22.6444 H   0  0  0  0  0  0  0  0  0  0  0  0
   -3.6312    1.3675  -23.0033 H   0  0  0  0  0  0  0  0  0  0  0  0
   -2.3705    2.2886  -21.0696 H   0  0  0  0  0  0  0  0  0  0  0  0
   -3.0886    1.7492  -18.7557 H   0  0  0  0  0  0  0  0  0  0  0  0
   -4.6291    0.6165  -17.2225 H   0  0  0  0  0  0  0  0  0  0  0  0
   -7.7543   -1.6811  -18.5942 H   0  0  0  0  0  0  0  0  0  0  0  0
   -6.8854   -1.7623  -22.1205 H   0  0  0  0  0  0  0  0  0  0  0  0
   -7.9912   -2.3090  -20.8666 H   0  0  0  0  0  0  0  0  0  0  0  0
   -9.6535   -0.9603  -22.3824 N   0  0  0  0  0  0  0  0  0  0  0  0
  -10.7449   -0.0422  -22.6740 C   0  0  0  0  0  0  0  0  0  0  0  0
  -12.0675   -0.7743  -22.5835 C   0  0  0  0  0  0  0  0  0  0  0  0
  -12.1973   -1.8545  -23.6611 C   0  0  0  0  0  0  0  0  0  0  0  0
  -13.1287   -2.9389  -23.1426 C   0  0  0  0  0  0  0  0  0  0  0  0
  -12.6641   -3.3779  -21.9304 F   0  0  0  0  0  0  0  0  0  0  0  0
  -14.3889   -2.4548  -22.9411 F   0  0  0  0  0  0  0  0  0  0  0  0
  -13.2076   -3.8168  -23.7955 H   0  0  0  0  0  0  0  0  0  0  0  0
  -10.8079   -2.4347  -23.9853 C   0  0  0  0  0  0  0  0  0  0  0  0
   -9.8427   -2.3494  -22.7976 C   0  0  0  0  0  0  0  0  0  0  0  0
   -8.8798   -2.7663  -23.0988 H   0  0  0  0  0  0  0  0  0  0  0  0
  -10.2234   -2.9509  -21.9657 H   0  0  0  0  0  0  0  0  0  0  0  0
  -10.9011   -3.4769  -24.3142 H   0  0  0  0  0  0  0  0  0  0  0  0
  -10.3657   -1.8793  -24.8190 H   0  0  0  0  0  0  0  0  0  0  0  0
  -12.6568   -1.4523  -24.5697 H   0  0  0  0  0  0  0  0  0  0  0  0
  -12.0722   -1.3192  -21.6511 H   0  0  0  0  0  0  0  0  0  0  0  0
  -12.9200   -0.0876  -22.5733 H   0  0  0  0  0  0  0  0  0  0  0  0
  -10.6797    0.7746  -21.9595 H   0  0  0  0  0  0  0  0  0  0  0  0
  -10.6143    0.3820  -23.6744 H   0  0  0  0  0  0  0  0  0  0  0  0
  1  2  2  0
  2  3  1  0
  3  4  1  0
  4  5  2  0
  5  6  1  0
  6  7  2  0
  7  8  1  0
  8  9  2  0
  9 10  1  0
 10 11  2  0
 11 12  1  0
 12 13  2  0
 12 14  1  0
 11 15  1  0
 10 16  1  0
  9 17  1  0
  7 18  1  0
  5 19  1  0
  3 20  1  0
  3 21  1  0
  2 22  1  0
 22 23  1  0
 23 24  1  0
 24 25  1  0
 25 26  1  0
 26 27  1  0
 26 28  1  0
 26 29  1  0
 25 30  1  0
 30 31  1  0
 31 32  1  0
 31 33  1  0
 30 34  1  0
 30 35  1  0
 25 36  1  0
 24 37  1  0
 24 38  1  0
 23 39  1  0
 23 40  1  0
 13  4  1  0
 31 22  1  0
 13  8  1  0
M  END
>  <cnnaffinities>  (86) 
[5.30478, 4.97616, 5.28951, 4.94195, 4.94171, 4.75794, 4.89236, 4.64202, 4.64209, 4.73759, 4.73752, 5.0529, 5.05288, 4.89622, 4.85821, 4.79053, 4.77622, 5.03655, 4.77499, 4.62663, 4.62842, 4.70368, 4.70375, 4.86875, 4.86789, 4.8615, 5.02235, 5.01192, 5.07863, 5.07863, 5.09543, 5.09484, 5.2644, 5.2644, 5.1299, 4.75047, 4.81087, 4.8107, 5.00593, 4.74934, 4.74929, 4.99476]

>  <score>  (86) 
5.30478

>  <index>  (86) 
88

>  <Smiles>  (86) 
O=C(C(c1c(nc(c2c(c(c(c(c12)[H])[H])[H])[H])[H])[H])([H])[H])N1C(C(C(C(F)(F)[H])(C(C1([H])[H])([H])[H])[H])([H])[H])([H])[H]

>  <h>  (86) 
<NA>

>  <Training>  (86) 
True

>  <Success>  (86) 
True

>  <enamine_searched>  (86) 
False

>  <enamine_id>  (86) 
nan

$$$$

     RDKit          3D

 43 45  0  0  0  0  0  0  0  0999 V2000
   -8.7221    1.3568  -26.5383 C   0  0  0  0  0  0  0  0  0  0  0  0
   -7.4248    1.1173  -25.7540 C   0  0  0  0  0  0  0  0  0  0  0  0
   -6.2436    1.4933  -26.6546 C   0  0  0  0  0  0  0  0  0  0  0  0
   -6.2928    2.5453  -26.9587 H   0  0  0  0  0  0  0  0  0  0  0  0
   -5.2858    1.3411  -26.1447 H   0  0  0  0  0  0  0  0  0  0  0  0
   -6.2310    0.8851  -27.5669 H   0  0  0  0  0  0  0  0  0  0  0  0
   -7.3929    1.9816  -24.4851 C   0  0  0  0  0  0  0  0  0  0  0  0
   -8.3843    1.5279  -23.4124 C   0  0  0  0  0  0  0  0  0  0  0  0
   -8.1760    0.1176  -23.1109 N   0  0  0  0  0  0  0  0  0  0  0  0
   -8.3851   -0.3132  -21.7960 C   0  0  0  0  0  0  0  0  0  0  0  0
   -9.1954    0.2049  -21.0587 O   0  0  0  0  0  0  0  0  0  0  0  0
   -7.4451   -1.4115  -21.2709 C   0  0  0  0  0  0  0  0  0  0  0  0
   -6.5714   -0.8341  -20.1741 C   0  0  0  0  0  0  0  0  0  0  0  0
   -6.8774   -1.0412  -18.8542 C   0  0  0  0  0  0  0  0  0  0  0  0
   -6.1958   -0.5357  -17.7896 N   0  0  0  0  0  0  0  0  0  0  0  0
   -5.1578    0.2202  -18.0620 C   0  0  0  0  0  0  0  0  0  0  0  0
   -4.7242    0.5343  -19.3785 C   0  0  0  0  0  0  0  0  0  0  0  0
   -3.6028    1.3692  -19.6211 C   0  0  0  0  0  0  0  0  0  0  0  0
   -3.2129    1.6635  -20.8999 C   0  0  0  0  0  0  0  0  0  0  0  0
   -3.9316    1.1294  -21.9938 C   0  0  0  0  0  0  0  0  0  0  0  0
   -5.0192    0.3169  -21.7846 C   0  0  0  0  0  0  0  0  0  0  0  0
   -5.4506   -0.0013  -20.4702 C   0  0  0  0  0  0  0  0  0  0  0  0
   -5.5518   -0.0871  -22.6385 H   0  0  0  0  0  0  0  0  0  0  0  0
   -3.6151    1.3675  -23.0053 H   0  0  0  0  0  0  0  0  0  0  0  0
   -2.3597    2.3112  -21.0842 H   0  0  0  0  0  0  0  0  0  0  0  0
   -3.0631    1.7806  -18.7713 H   0  0  0  0  0  0  0  0  0  0  0  0
   -4.6026    0.6267  -17.2147 H   0  0  0  0  0  0  0  0  0  0  0  0
   -7.7293   -1.6617  -18.5834 H   0  0  0  0  0  0  0  0  0  0  0  0
   -8.0659   -2.2085  -20.8450 H   0  0  0  0  0  0  0  0  0  0  0  0
   -6.8366   -1.8404  -22.0769 H   0  0  0  0  0  0  0  0  0  0  0  0
   -8.2739   -0.7737  -24.2602 C   0  0  0  0  0  0  0  0  0  0  0  0
   -7.2939   -0.3579  -25.3504 C   0  0  0  0  0  0  0  0  0  0  0  0
   -6.2778   -0.5392  -24.9818 H   0  0  0  0  0  0  0  0  0  0  0  0
   -7.4230   -0.9917  -26.2348 H   0  0  0  0  0  0  0  0  0  0  0  0
   -8.0663   -1.7878  -23.9235 H   0  0  0  0  0  0  0  0  0  0  0  0
   -9.2974   -0.7966  -24.6740 H   0  0  0  0  0  0  0  0  0  0  0  0
   -8.2172    2.0833  -22.4896 H   0  0  0  0  0  0  0  0  0  0  0  0
   -9.4181    1.7514  -23.7179 H   0  0  0  0  0  0  0  0  0  0  0  0
   -6.3829    1.9550  -24.0546 H   0  0  0  0  0  0  0  0  0  0  0  0
   -7.5795    3.0269  -24.7523 H   0  0  0  0  0  0  0  0  0  0  0  0
   -8.8015    2.4053  -26.8453 H   0  0  0  0  0  0  0  0  0  0  0  0
   -9.6210    1.1188  -25.9646 H   0  0  0  0  0  0  0  0  0  0  0  0
   -8.7459    0.7467  -27.4477 H   0  0  0  0  0  0  0  0  0  0  0  0
  1  2  1  0
  2  3  1  0
  3  4  1  0
  3  5  1  0
  3  6  1  0
  2  7  1  0
  7  8  1  0
  8  9  1  0
  9 10  1  0
 10 11  2  0
 10 12  1  0
 12 13  1  0
 13 14  2  0
 14 15  1  0
 15 16  2  0
 16 17  1  0
 17 18  2  0
 18 19  1  0
 19 20  2  0
 20 21  1  0
 21 22  2  0
 21 23  1  0
 20 24  1  0
 19 25  1  0
 18 26  1  0
 16 27  1  0
 14 28  1  0
 12 29  1  0
 12 30  1  0
  9 31  1  0
 31 32  1  0
 32 33  1  0
 32 34  1  0
 31 35  1  0
 31 36  1  0
  8 37  1  0
  8 38  1  0
  7 39  1  0
  7 40  1  0
  1 41  1  0
  1 42  1  0
  1 43  1  0
 32  2  1  0
 22 13  1  0
 22 17  1  0
M  END
>  <cnnaffinities>  (87) 
[4.94606, 4.94594, 4.94601, 4.94615, 5.07907, 4.70064, 4.70088, 4.70087, 4.97938, 4.97931, 4.97931, 4.97931, 5.1406, 4.91817, 4.91816, 4.91817, 4.91906]

>  <score>  (87) 
4.94606

>  <index>  (87) 
89

>  <Smiles>  (87) 
C(C1(C([H])([H])[H])C(C(N(C(=O)C(c2c(nc(c3c(c(c(c(c23)[H])[H])[H])[H])[H])[H])([H])[H])C(C1([H])[H])([H])[H])([H])[H])([H])[H])([H])([H])[H]

>  <h>  (87) 
<NA>

>  <Training>  (87) 
True

>  <Success>  (87) 
True

>  <enamine_searched>  (87) 
False

>  <enamine_id>  (87) 
nan

$$$$

     RDKit          3D

 64 68  0  0  0  0  0  0  0  0999 V2000
   -7.5200    3.1687  -22.1018 C   0  0  0  0  0  0  0  0  0  0  0  0
   -8.6344    2.5776  -22.8348 N   0  0  0  0  0  0  0  0  0  0  0  0
   -8.3781    1.7494  -23.8913 C   0  0  0  0  0  0  0  0  0  0  0  0
   -7.2418    1.4620  -24.2442 O   0  0  0  0  0  0  0  0  0  0  0  0
   -9.6027    1.2108  -24.6437 C   0  0  0  0  0  0  0  0  0  0  0  0
  -10.1038   -0.0147  -24.0367 N   0  0  0  0  0  0  0  0  0  0  0  0
   -9.2389   -1.1822  -23.9575 C   0  0  0  0  0  0  0  0  0  0  0  0
   -9.3547   -1.9019  -22.5787 C   0  0  2  0  0  0  0  0  0  0  0  0
   -8.7445   -0.9688  -21.4920 C   0  0  0  0  0  0  0  0  0  0  0  0
   -9.2630    0.0066  -20.9893 O   0  0  0  0  0  0  0  0  0  0  0  0
   -7.4710   -1.4110  -21.1904 N   0  0  0  0  0  0  0  0  0  0  0  0
   -6.6900   -0.8145  -20.1681 C   0  0  0  0  0  0  0  0  0  0  0  0
   -6.9912   -1.0507  -18.8484 C   0  0  0  0  0  0  0  0  0  0  0  0
   -6.2786   -0.5726  -17.7982 N   0  0  0  0  0  0  0  0  0  0  0  0
   -5.2310    0.1720  -18.0695 C   0  0  0  0  0  0  0  0  0  0  0  0
   -4.7996    0.4968  -19.3885 C   0  0  0  0  0  0  0  0  0  0  0  0
   -3.6655    1.3210  -19.6295 C   0  0  0  0  0  0  0  0  0  0  0  0
   -3.2910    1.6288  -20.9103 C   0  0  0  0  0  0  0  0  0  0  0  0
   -4.0365    1.1394  -22.0051 C   0  0  0  0  0  0  0  0  0  0  0  0
   -5.1468    0.3528  -21.7970 C   0  0  0  0  0  0  0  0  0  0  0  0
   -5.5517   -0.0020  -20.4804 C   0  0  0  0  0  0  0  0  0  0  0  0
   -5.7467    0.0391  -22.6452 H   0  0  0  0  0  0  0  0  0  0  0  0
   -3.7420    1.3963  -23.0189 H   0  0  0  0  0  0  0  0  0  0  0  0
   -2.4312    2.2684  -21.0891 H   0  0  0  0  0  0  0  0  0  0  0  0
   -3.1237    1.7145  -18.7724 H   0  0  0  0  0  0  0  0  0  0  0  0
   -4.6643    0.5667  -17.2233 H   0  0  0  0  0  0  0  0  0  0  0  0
   -7.8439   -1.6733  -18.5887 H   0  0  0  0  0  0  0  0  0  0  0  0
   -7.0462   -2.5505  -21.9719 C   0  0  0  0  0  0  0  0  0  0  0  0
   -8.3876   -3.1224  -22.4708 C   0  0  2  0  0  0  0  0  0  0  0  0
   -8.2432   -3.9646  -23.7349 C   0  0  0  0  0  0  0  0  0  0  0  0
   -7.3732   -5.4970  -23.4487 S   0  0  0  0  0  0  0  0  0  0  0  0
   -5.9731   -5.2175  -23.1610 O   0  0  0  0  0  0  0  0  0  0  0  0
   -8.1633   -6.3174  -22.5414 O   0  0  0  0  0  0  0  0  0  0  0  0
   -7.3867   -6.1404  -24.9806 N   0  0  0  0  0  0  0  0  0  0  0  0
   -8.6020   -6.7739  -25.4750 C   0  0  0  0  0  0  0  0  0  0  0  0
   -9.3134   -6.0042  -25.7872 H   0  0  0  0  0  0  0  0  0  0  0  0
   -9.0888   -7.4199  -24.7368 H   0  0  0  0  0  0  0  0  0  0  0  0
   -8.3284   -7.3574  -26.3561 H   0  0  0  0  0  0  0  0  0  0  0  0
   -6.5248   -6.6528  -25.1184 H   0  0  0  0  0  0  0  0  0  0  0  0
   -9.2264   -4.2477  -24.1242 H   0  0  0  0  0  0  0  0  0  0  0  0
   -7.6640   -3.4451  -24.5067 H   0  0  0  0  0  0  0  0  0  0  0  0
   -8.7635   -3.7677  -21.6735 H   0  0  0  0  0  0  0  0  0  0  0  0
   -6.4780   -3.2669  -21.3734 H   0  0  0  0  0  0  0  0  0  0  0  0
   -6.3962   -2.2457  -22.8068 H   0  0  0  0  0  0  0  0  0  0  0  0
  -10.8448   -2.1701  -22.3364 C   0  0  0  0  0  0  0  0  0  0  0  0
  -11.3217   -3.2285  -21.5480 C   0  0  0  0  0  0  0  0  0  0  0  0
  -12.6656   -3.2538  -21.1938 C   0  0  0  0  0  0  0  0  0  0  0  0
  -13.1232   -4.0991  -20.2531 F   0  0  0  0  0  0  0  0  0  0  0  0
  -13.6023   -2.3735  -21.7088 C   0  0  0  0  0  0  0  0  0  0  0  0
  -13.1600   -1.3822  -22.5509 C   0  0  0  0  0  0  0  0  0  0  0  0
  -11.7983   -1.2601  -22.8294 C   0  0  0  0  0  0  0  0  0  0  0  0
  -11.4020   -0.0536  -23.6229 C   0  0  0  0  0  0  0  0  0  0  0  0
  -12.1967    0.8464  -23.8659 O   0  0  0  0  0  0  0  0  0  0  0  0
  -13.8430   -0.6546  -22.9747 H   0  0  0  0  0  0  0  0  0  0  0  0
  -14.6329   -2.4618  -21.3873 H   0  0  0  0  0  0  0  0  0  0  0  0
  -10.6381   -3.9713  -21.1472 H   0  0  0  0  0  0  0  0  0  0  0  0
   -8.2213   -0.8161  -24.1159 H   0  0  0  0  0  0  0  0  0  0  0  0
   -9.4904   -1.8781  -24.7723 H   0  0  0  0  0  0  0  0  0  0  0  0
  -10.4375    1.9166  -24.6227 H   0  0  0  0  0  0  0  0  0  0  0  0
   -9.3145    1.0455  -25.6936 H   0  0  0  0  0  0  0  0  0  0  0  0
   -9.5162    2.4910  -22.3460 H   0  0  0  0  0  0  0  0  0  0  0  0
   -6.9967    2.4343  -21.4691 H   0  0  0  0  0  0  0  0  0  0  0  0
   -6.7865    3.5185  -22.8340 H   0  0  0  0  0  0  0  0  0  0  0  0
   -7.8764    3.9992  -21.4739 H   0  0  0  0  0  0  0  0  0  0  0  0
  1  2  1  0
  2  3  1  0
  3  4  2  0
  3  5  1  0
  5  6  1  0
  6  7  1  0
  8  7  1  6
  8  9  1  0
  9 10  2  0
  9 11  1  0
 11 12  1  0
 12 13  2  0
 13 14  1  0
 14 15  2  0
 15 16  1  0
 16 17  2  0
 17 18  1  0
 18 19  2  0
 19 20  1  0
 20 21  2  0
 20 22  1  0
 19 23  1  0
 18 24  1  0
 17 25  1  0
 15 26  1  0
 13 27  1  0
 11 28  1  0
 28 29  1  0
 29 30  1  0
 30 31  1  0
 31 32  2  0
 31 33  2  0
 31 34  1  0
 34 35  1  0
 35 36  1  0
 35 37  1  0
 35 38  1  0
 34 39  1  0
 30 40  1  0
 30 41  1  0
 29 42  1  1
 28 43  1  0
 28 44  1  0
  8 45  1  0
 45 46  2  0
 46 47  1  0
 47 48  1  0
 47 49  2  0
 49 50  1  0
 50 51  2  0
 51 52  1  0
 52 53  2  0
 50 54  1  0
 49 55  1  0
 46 56  1  0
  7 57  1  0
  7 58  1  0
  5 59  1  0
  5 60  1  0
  2 61  1  0
  1 62  1  0
  1 63  1  0
  1 64  1  0
 52  6  1  0
 29  8  1  0
 51 45  1  0
 21 12  1  0
 21 16  1  0
M  END
>  <cnnaffinities>  (88) 
[6.90921, 6.50117, 6.79722, 6.79824, 6.71337, 6.89979, 6.69788]

>  <score>  (88) 
6.90921

>  <index>  (88) 
90

>  <Smiles>  (88) 
C(N(C(=O)C(N1C([C@@]2(C(=O)N(c3c(nc(c4c(c(c(c(c34)[H])[H])[H])[H])[H])[H])C([C@@]2(C(S(=O)(=O)N(C([H])([H])[H])[H])([H])[H])[H])([H])[H])c2c(c(F)c(c(c2C1=O)[H])[H])[H])([H])[H])([H])[H])[H])([H])([H])[H]

>  <h>  (88) 
<NA>

>  <Training>  (88) 
True

>  <Success>  (88) 
True

>  <enamine_searched>  (88) 
False

>  <enamine_id>  (88) 
nan

$$$$

     RDKit          3D

 66 71  0  0  0  0  0  0  0  0999 V2000
   -7.4590    3.4762  -21.8645 C   0  0  0  0  0  0  0  0  0  0  0  0
   -8.5155    2.9798  -22.7360 N   0  0  0  0  0  0  0  0  0  0  0  0
   -8.1306    2.2086  -23.7942 C   0  0  0  0  0  0  0  0  0  0  0  0
   -6.9564    1.9400  -24.0073 O   0  0  0  0  0  0  0  0  0  0  0  0
   -9.2291    1.6625  -24.7035 C   0  0  0  0  0  0  0  0  0  0  0  0
   -9.7881    0.4627  -24.1172 N   0  0  0  0  0  0  0  0  0  0  0  0
   -8.9687   -0.7402  -24.0679 C   0  0  0  0  0  0  0  0  0  0  0  0
   -9.2241   -1.5592  -22.7755 C   0  0  2  0  0  0  0  0  0  0  0  0
   -8.6340   -0.7907  -21.5671 C   0  0  0  0  0  0  0  0  0  0  0  0
   -9.1018    0.1930  -21.0299 O   0  0  0  0  0  0  0  0  0  0  0  0
   -7.4490   -1.3906  -21.2010 N   0  0  0  0  0  0  0  0  0  0  0  0
   -6.6324   -0.8248  -20.1867 C   0  0  0  0  0  0  0  0  0  0  0  0
   -6.9449   -1.0514  -18.8698 C   0  0  0  0  0  0  0  0  0  0  0  0
   -6.2472   -0.5679  -17.8125 N   0  0  0  0  0  0  0  0  0  0  0  0
   -5.2038    0.1831  -18.0825 C   0  0  0  0  0  0  0  0  0  0  0  0
   -4.7720    0.5119  -19.3996 C   0  0  0  0  0  0  0  0  0  0  0  0
   -3.6459    1.3492  -19.6282 C   0  0  0  0  0  0  0  0  0  0  0  0
   -3.2585    1.6566  -20.9041 C   0  0  0  0  0  0  0  0  0  0  0  0
   -3.9786    1.1477  -22.0068 C   0  0  0  0  0  0  0  0  0  0  0  0
   -5.0798    0.3455  -21.8143 C   0  0  0  0  0  0  0  0  0  0  0  0
   -5.5013   -0.0034  -20.4997 C   0  0  0  0  0  0  0  0  0  0  0  0
   -5.6428    0.0029  -22.6776 H   0  0  0  0  0  0  0  0  0  0  0  0
   -3.6610    1.3969  -23.0156 H   0  0  0  0  0  0  0  0  0  0  0  0
   -2.3982    2.2973  -21.0763 H   0  0  0  0  0  0  0  0  0  0  0  0
   -3.1095    1.7407  -18.7672 H   0  0  0  0  0  0  0  0  0  0  0  0
   -4.6370    0.5779  -17.2376 H   0  0  0  0  0  0  0  0  0  0  0  0
   -7.8091   -1.6659  -18.6318 H   0  0  0  0  0  0  0  0  0  0  0  0
   -7.0989   -2.5442  -22.0101 C   0  0  0  0  0  0  0  0  0  0  0  0
   -8.4016   -2.8812  -22.7536 C   0  0  2  0  0  0  0  0  0  0  0  0
   -8.1197   -3.5609  -24.0961 C   0  0  0  0  0  0  0  0  0  0  0  0
   -9.3321   -3.9392  -24.7750 N   0  0  0  0  0  0  0  0  0  0  0  0
   -9.3548   -4.5568  -25.9944 C   0  0  0  0  0  0  0  0  0  0  0  0
   -8.1792   -4.8574  -26.7310 C   0  0  0  0  0  0  0  0  0  0  0  0
   -8.2185   -5.4187  -27.9298 N   0  0  0  0  0  0  0  0  0  0  0  0
   -9.4283   -5.7196  -28.4096 C   0  0  0  0  0  0  0  0  0  0  0  0
  -10.5762   -5.4531  -27.6781 C   0  0  0  0  0  0  0  0  0  0  0  0
  -10.5577   -4.8636  -26.4835 N   0  0  0  0  0  0  0  0  0  0  0  0
  -11.5556   -5.7242  -28.0635 H   0  0  0  0  0  0  0  0  0  0  0  0
   -9.4742   -6.1818  -29.3917 H   0  0  0  0  0  0  0  0  0  0  0  0
   -7.1911   -4.6377  -26.3368 H   0  0  0  0  0  0  0  0  0  0  0  0
  -10.2332   -3.8332  -24.3283 H   0  0  0  0  0  0  0  0  0  0  0  0
   -7.4986   -4.4510  -23.9223 H   0  0  0  0  0  0  0  0  0  0  0  0
   -7.5328   -2.8864  -24.7404 H   0  0  0  0  0  0  0  0  0  0  0  0
   -8.9588   -3.5996  -22.1451 H   0  0  0  0  0  0  0  0  0  0  0  0
   -6.2905   -2.3115  -22.7206 H   0  0  0  0  0  0  0  0  0  0  0  0
   -6.7603   -3.3767  -21.3857 H   0  0  0  0  0  0  0  0  0  0  0  0
  -10.7268   -1.7241  -22.6104 C   0  0  0  0  0  0  0  0  0  0  0  0
  -11.2708   -2.7192  -21.7889 C   0  0  0  0  0  0  0  0  0  0  0  0
  -12.6351   -2.7520  -21.5556 C   0  0  0  0  0  0  0  0  0  0  0  0
  -13.3013   -3.8532  -20.4000 Cl  0  0  0  0  0  0  0  0  0  0  0  0
  -13.5172   -1.8625  -22.1611 C   0  0  0  0  0  0  0  0  0  0  0  0
  -12.9902   -0.8753  -22.9595 C   0  0  0  0  0  0  0  0  0  0  0  0
  -11.6149   -0.7812  -23.1477 C   0  0  0  0  0  0  0  0  0  0  0  0
  -11.1259    0.4356  -23.8599 C   0  0  0  0  0  0  0  0  0  0  0  0
  -11.8784    1.3522  -24.1638 O   0  0  0  0  0  0  0  0  0  0  0  0
  -13.6114   -0.1194  -23.4231 H   0  0  0  0  0  0  0  0  0  0  0  0
  -14.5804   -1.9254  -21.9600 H   0  0  0  0  0  0  0  0  0  0  0  0
  -10.6467   -3.4443  -21.2792 H   0  0  0  0  0  0  0  0  0  0  0  0
   -7.9173   -0.4422  -24.1210 H   0  0  0  0  0  0  0  0  0  0  0  0
   -9.1827   -1.3740  -24.9382 H   0  0  0  0  0  0  0  0  0  0  0  0
  -10.0550    2.3635  -24.8498 H   0  0  0  0  0  0  0  0  0  0  0  0
   -8.7980    1.4285  -25.6846 H   0  0  0  0  0  0  0  0  0  0  0  0
   -9.4405    2.8530  -22.3444 H   0  0  0  0  0  0  0  0  0  0  0  0
   -6.7940    4.1430  -22.4191 H   0  0  0  0  0  0  0  0  0  0  0  0
   -7.8808    4.0713  -21.0513 H   0  0  0  0  0  0  0  0  0  0  0  0
   -6.8670    2.6266  -21.4920 H   0  0  0  0  0  0  0  0  0  0  0  0
  1  2  1  0
  2  3  1  0
  3  4  2  0
  3  5  1  0
  5  6  1  0
  6  7  1  0
  8  7  1  6
  8  9  1  0
  9 10  2  0
  9 11  1  0
 11 12  1  0
 12 13  2  0
 13 14  1  0
 14 15  2  0
 15 16  1  0
 16 17  2  0
 17 18  1  0
 18 19  2  0
 19 20  1  0
 20 21  2  0
 20 22  1  0
 19 23  1  0
 18 24  1  0
 17 25  1  0
 15 26  1  0
 13 27  1  0
 11 28  1  0
 28 29  1  0
 29 30  1  0
 30 31  1  0
 31 32  1  0
 32 33  2  0
 33 34  1  0
 34 35  2  0
 35 36  1  0
 36 37  2  0
 36 38  1  0
 35 39  1  0
 33 40  1  0
 31 41  1  0
 30 42  1  0
 30 43  1  0
 29 44  1  1
 28 45  1  0
 28 46  1  0
  8 47  1  0
 47 48  2  0
 48 49  1  0
 49 50  1  0
 49 51  2  0
 51 52  1  0
 52 53  2  0
 53 54  1  0
 54 55  2  0
 52 56  1  0
 51 57  1  0
 48 58  1  0
  7 59  1  0
  7 60  1  0
  5 61  1  0
  5 62  1  0
  2 63  1  0
  1 64  1  0
  1 65  1  0
  1 66  1  0
 54  6  1  0
 29  8  1  0
 37 32  1  0
 53 47  1  0
 21 12  1  0
 21 16  1  0
M  END
>  <cnnaffinities>  (89) 
[6.5417, 7.1363, 6.74453]

>  <score>  (89) 
6.5417

>  <index>  (89) 
91

>  <Smiles>  (89) 
C(N(C(=O)C(N1C([C@@]2(C(=O)N(c3c(nc(c4c(c(c(c(c34)[H])[H])[H])[H])[H])[H])C([C@@]2(C(N(c2c(nc(c(n2)[H])[H])[H])[H])([H])[H])[H])([H])[H])c2c(c(Cl)c(c(c2C1=O)[H])[H])[H])([H])[H])([H])[H])[H])([H])([H])[H]

>  <h>  (89) 
<NA>

>  <Training>  (89) 
True

>  <Success>  (89) 
True

>  <enamine_searched>  (89) 
False

>  <enamine_id>  (89) 
nan

$$$$

     RDKit          3D

 60 65  0  0  0  0  0  0  0  0999 V2000
   -6.9967   -5.5762  -24.9526 C   0  0  0  0  0  0  0  0  0  0  0  0
   -7.3543   -4.8744  -23.7893 O   0  0  0  0  0  0  0  0  0  0  0  0
   -7.9197   -3.6227  -24.0815 C   0  0  0  0  0  0  0  0  0  0  0  0
   -8.2797   -2.9178  -22.7723 C   0  0  1  0  0  0  0  0  0  0  0  0
   -7.0353   -2.6240  -21.9039 C   0  0  0  0  0  0  0  0  0  0  0  0
   -7.3871   -1.4010  -21.2074 N   0  0  0  0  0  0  0  0  0  0  0  0
   -6.5972   -0.8199  -20.1780 C   0  0  0  0  0  0  0  0  0  0  0  0
   -6.9101   -1.0481  -18.8607 C   0  0  0  0  0  0  0  0  0  0  0  0
   -6.2172   -0.5495  -17.8059 N   0  0  0  0  0  0  0  0  0  0  0  0
   -5.1777    0.2063  -18.0744 C   0  0  0  0  0  0  0  0  0  0  0  0
   -4.7391    0.5278  -19.3955 C   0  0  0  0  0  0  0  0  0  0  0  0
   -3.6089    1.3577  -19.6326 C   0  0  0  0  0  0  0  0  0  0  0  0
   -3.2116    1.6388  -20.9122 C   0  0  0  0  0  0  0  0  0  0  0  0
   -3.9226    1.1049  -22.0095 C   0  0  0  0  0  0  0  0  0  0  0  0
   -5.0182    0.3003  -21.8063 C   0  0  0  0  0  0  0  0  0  0  0  0
   -5.4610   -0.0036  -20.4864 C   0  0  0  0  0  0  0  0  0  0  0  0
   -5.5585   -0.1013  -22.6594 H   0  0  0  0  0  0  0  0  0  0  0  0
   -3.6012    1.3466  -23.0205 H   0  0  0  0  0  0  0  0  0  0  0  0
   -2.3588    2.2870  -21.0951 H   0  0  0  0  0  0  0  0  0  0  0  0
   -3.0768    1.7645  -18.7772 H   0  0  0  0  0  0  0  0  0  0  0  0
   -4.6210    0.6077  -17.2276 H   0  0  0  0  0  0  0  0  0  0  0  0
   -7.7693   -1.6690  -18.6121 H   0  0  0  0  0  0  0  0  0  0  0  0
   -8.4988   -0.7571  -21.6988 C   0  0  0  0  0  0  0  0  0  0  0  0
   -8.9685    0.2504  -21.2240 O   0  0  0  0  0  0  0  0  0  0  0  0
   -9.0396   -1.5627  -22.9114 C   0  0  1  0  0  0  0  0  0  0  0  0
   -8.6817   -0.8649  -24.2521 C   0  0  0  0  0  0  0  0  0  0  0  0
   -9.4526    0.3379  -24.4976 N   0  0  0  0  0  0  0  0  0  0  0  0
   -8.7548    1.5561  -24.8915 C   0  0  0  0  0  0  0  0  0  0  0  0
   -8.3314    2.4305  -23.7280 C   0  0  0  0  0  0  0  0  0  0  0  0
   -7.0297    2.7199  -23.2438 C   0  0  0  0  0  0  0  0  0  0  0  0
   -7.0239    3.5669  -22.2201 N   0  0  0  0  0  0  0  0  0  0  0  0
   -8.3237    3.8477  -22.0617 N   0  0  0  0  0  0  0  0  0  0  0  0
   -9.1459    3.1722  -22.9033 C   0  0  0  0  0  0  0  0  0  0  0  0
  -10.2276    3.2678  -22.8372 H   0  0  0  0  0  0  0  0  0  0  0  0
   -8.6377    4.3308  -21.2364 H   0  0  0  0  0  0  0  0  0  0  0  0
   -6.0850    2.3119  -23.5629 H   0  0  0  0  0  0  0  0  0  0  0  0
   -7.8756    1.2717  -25.4831 H   0  0  0  0  0  0  0  0  0  0  0  0
   -9.4548    2.0865  -25.5462 H   0  0  0  0  0  0  0  0  0  0  0  0
  -10.7841    0.4376  -24.2181 C   0  0  0  0  0  0  0  0  0  0  0  0
  -11.4500    1.4269  -24.5091 O   0  0  0  0  0  0  0  0  0  0  0  0
  -11.3757   -0.7263  -23.4879 C   0  0  0  0  0  0  0  0  0  0  0  0
  -12.7656   -0.7981  -23.3951 C   0  0  0  0  0  0  0  0  0  0  0  0
  -13.3470   -1.7247  -22.5529 C   0  0  0  0  0  0  0  0  0  0  0  0
  -12.5306   -2.5530  -21.7832 C   0  0  0  0  0  0  0  0  0  0  0  0
  -13.2865   -3.5988  -20.6149 Cl  0  0  0  0  0  0  0  0  0  0  0  0
  -11.1528   -2.5190  -21.9033 C   0  0  0  0  0  0  0  0  0  0  0  0
  -10.5546   -1.6392  -22.8133 C   0  0  0  0  0  0  0  0  0  0  0  0
  -10.5493   -3.1502  -21.2600 H   0  0  0  0  0  0  0  0  0  0  0  0
  -14.4218   -1.7855  -22.4400 H   0  0  0  0  0  0  0  0  0  0  0  0
  -13.3538   -0.0871  -23.9692 H   0  0  0  0  0  0  0  0  0  0  0  0
   -8.8504   -1.5775  -25.0709 H   0  0  0  0  0  0  0  0  0  0  0  0
   -7.6223   -0.5883  -24.2375 H   0  0  0  0  0  0  0  0  0  0  0  0
   -6.8197   -3.4273  -21.1925 H   0  0  0  0  0  0  0  0  0  0  0  0
   -6.1394   -2.4776  -22.5243 H   0  0  0  0  0  0  0  0  0  0  0  0
   -8.9259   -3.6027  -22.2220 H   0  0  0  0  0  0  0  0  0  0  0  0
   -7.1946   -3.0149  -24.6523 H   0  0  0  0  0  0  0  0  0  0  0  0
   -8.8156   -3.7603  -24.7131 H   0  0  0  0  0  0  0  0  0  0  0  0
   -7.8677   -5.7543  -25.6029 H   0  0  0  0  0  0  0  0  0  0  0  0
   -6.5854   -6.5396  -24.6449 H   0  0  0  0  0  0  0  0  0  0  0  0
   -6.2349   -5.0350  -25.5354 H   0  0  0  0  0  0  0  0  0  0  0  0
  1  2  1  0
  2  3  1  0
  3  4  1  0
  4  5  1  0
  5  6  1  0
  6  7  1  0
  7  8  2  0
  8  9  1  0
  9 10  2  0
 10 11  1  0
 11 12  2  0
 12 13  1  0
 13 14  2  0
 14 15  1  0
 15 16  2  0
 15 17  1  0
 14 18  1  0
 13 19  1  0
 12 20  1  0
 10 21  1  0
  8 22  1  0
  6 23  1  0
 23 24  2  0
 23 25  1  0
 25 26  1  6
 26 27  1  0
 27 28  1  0
 28 29  1  0
 29 30  1  0
 30 31  2  0
 31 32  1  0
 32 33  1  0
 33 34  1  0
 32 35  1  0
 30 36  1  0
 28 37  1  0
 28 38  1  0
 27 39  1  0
 39 40  2  0
 39 41  1  0
 41 42  2  0
 42 43  1  0
 43 44  2  0
 44 45  1  0
 44 46  1  0
 46 47  2  0
 46 48  1  0
 43 49  1  0
 42 50  1  0
 26 51  1  0
 26 52  1  0
  5 53  1  0
  5 54  1  0
  4 55  1  1
  3 56  1  0
  3 57  1  0
  1 58  1  0
  1 59  1  0
  1 60  1  0
 25  4  1  0
 33 29  2  0
 47 41  1  0
 16  7  1  0
 47 25  1  0
 16 11  1  0
M  END
>  <cnnaffinities>  (90) 
[6.46688, 6.83241, 6.3828, 6.62385]

>  <score>  (90) 
6.46688

>  <index>  (90) 
92

>  <Smiles>  (90) 
C(OC([C@]1(C(N(c2c(nc(c3c(c(c(c(c23)[H])[H])[H])[H])[H])[H])C(=O)[C@]21C(N(C(c1c(nn(c1[H])[H])[H])([H])[H])C(=O)c1c(c(c(Cl)c(c21)[H])[H])[H])([H])[H])([H])[H])[H])([H])[H])([H])([H])[H]

>  <h>  (90) 
<NA>

>  <Training>  (90) 
True

>  <Success>  (90) 
True

>  <enamine_searched>  (90) 
False

>  <enamine_id>  (90) 
nan

$$$$

     RDKit          3D

 62 67  0  0  0  0  0  0  0  0999 V2000
  -11.5562    2.4746  -22.0150 C   0  0  0  0  0  0  0  0  0  0  0  0
  -11.8686    2.4136  -21.9778 C   0  0  0  0  0  0  0  0  0  0  0  0
  -11.9561    2.8168  -23.3753 N   0  0  0  0  0  0  0  0  0  0  0  0
  -12.8226    3.7807  -23.6464 N   0  0  0  0  0  0  0  0  0  0  0  0
  -12.6255    4.0946  -24.9278 C   0  0  0  0  0  0  0  0  0  0  0  0
  -11.5806    3.3250  -25.4689 C   0  0  0  0  0  0  0  0  0  0  0  0
  -11.2133    2.4640  -24.4483 C   0  0  0  0  0  0  0  0  0  0  0  0
  -10.1676    1.3733  -24.4557 C   0  0  0  0  0  0  0  0  0  0  0  0
  -10.5980   -0.0154  -24.2220 N   0  0  0  0  0  0  0  0  0  0  0  0
   -9.5523   -1.0267  -24.0581 C   0  0  0  0  0  0  0  0  0  0  0  0
   -9.6726   -1.8127  -22.7169 C   0  0  2  0  0  0  0  0  0  0  0  0
   -9.0819   -0.9265  -21.5851 C   0  0  0  0  0  0  0  0  0  0  0  0
   -9.6239   -0.0011  -21.0151 O   0  0  0  0  0  0  0  0  0  0  0  0
   -7.7844   -1.3191  -21.3438 N   0  0  0  0  0  0  0  0  0  0  0  0
   -7.0288   -0.7717  -20.2762 C   0  0  0  0  0  0  0  0  0  0  0  0
   -7.4136   -0.9634  -18.9718 C   0  0  0  0  0  0  0  0  0  0  0  0
   -6.6997   -0.5547  -17.8905 N   0  0  0  0  0  0  0  0  0  0  0  0
   -5.5788    0.0904  -18.1122 C   0  0  0  0  0  0  0  0  0  0  0  0
   -5.0789    0.3925  -19.4095 C   0  0  0  0  0  0  0  0  0  0  0  0
   -3.8770    1.1244  -19.6027 C   0  0  0  0  0  0  0  0  0  0  0  0
   -3.4427    1.4177  -20.8665 C   0  0  0  0  0  0  0  0  0  0  0  0
   -4.1851    0.9967  -21.9928 C   0  0  0  0  0  0  0  0  0  0  0  0
   -5.3490    0.2853  -21.8291 C   0  0  0  0  0  0  0  0  0  0  0  0
   -5.8214   -0.0426  -20.5318 C   0  0  0  0  0  0  0  0  0  0  0  0
   -5.9273   -0.0191  -22.6953 H   0  0  0  0  0  0  0  0  0  0  0  0
   -3.8380    1.2411  -22.9935 H   0  0  0  0  0  0  0  0  0  0  0  0
   -2.5283    1.9852  -21.0156 H   0  0  0  0  0  0  0  0  0  0  0  0
   -3.3215    1.4529  -18.7267 H   0  0  0  0  0  0  0  0  0  0  0  0
   -5.0043    0.4142  -17.2418 H   0  0  0  0  0  0  0  0  0  0  0  0
   -8.3371   -1.4905  -18.7440 H   0  0  0  0  0  0  0  0  0  0  0  0
   -7.3617   -2.4439  -22.1623 C   0  0  0  0  0  0  0  0  0  0  0  0
   -8.7051   -3.0260  -22.6197 C   0  0  2  0  0  0  0  0  0  0  0  0
   -8.6609   -3.9728  -23.8104 C   0  0  0  0  0  0  0  0  0  0  0  0
   -8.2431   -3.5008  -24.7068 H   0  0  0  0  0  0  0  0  0  0  0  0
   -8.0538   -4.8567  -23.5813 H   0  0  0  0  0  0  0  0  0  0  0  0
   -9.6734   -4.3165  -24.0520 H   0  0  0  0  0  0  0  0  0  0  0  0
   -9.0641   -3.5906  -21.7575 H   0  0  0  0  0  0  0  0  0  0  0  0
   -6.7394   -2.1350  -23.0149 H   0  0  0  0  0  0  0  0  0  0  0  0
   -6.7750   -3.1521  -21.5668 H   0  0  0  0  0  0  0  0  0  0  0  0
  -11.1318   -2.1814  -22.4893 C   0  0  0  0  0  0  0  0  0  0  0  0
  -11.5095   -3.1714  -21.5722 C   0  0  0  0  0  0  0  0  0  0  0  0
  -12.8300   -3.3004  -21.1949 C   0  0  0  0  0  0  0  0  0  0  0  0
  -13.1560   -4.0932  -20.1639 F   0  0  0  0  0  0  0  0  0  0  0  0
  -13.8582   -2.5894  -21.7919 C   0  0  0  0  0  0  0  0  0  0  0  0
  -13.5107   -1.6902  -22.7763 C   0  0  0  0  0  0  0  0  0  0  0  0
  -12.1694   -1.4771  -23.1032 C   0  0  0  0  0  0  0  0  0  0  0  0
  -11.9141   -0.3577  -24.0522 C   0  0  0  0  0  0  0  0  0  0  0  0
  -12.8611    0.2626  -24.5067 O   0  0  0  0  0  0  0  0  0  0  0  0
  -14.2494   -1.0882  -23.2880 H   0  0  0  0  0  0  0  0  0  0  0  0
  -14.8776   -2.7138  -21.4513 H   0  0  0  0  0  0  0  0  0  0  0  0
  -10.7772   -3.8193  -21.1030 H   0  0  0  0  0  0  0  0  0  0  0  0
   -8.5844   -0.5135  -24.1090 H   0  0  0  0  0  0  0  0  0  0  0  0
   -9.5904   -1.7395  -24.8952 H   0  0  0  0  0  0  0  0  0  0  0  0
   -9.6652    1.4296  -25.4252 H   0  0  0  0  0  0  0  0  0  0  0  0
   -9.3898    1.6049  -23.7067 H   0  0  0  0  0  0  0  0  0  0  0  0
  -11.1188    3.4231  -26.4491 H   0  0  0  0  0  0  0  0  0  0  0  0
  -13.2312    4.8707  -25.3865 H   0  0  0  0  0  0  0  0  0  0  0  0
  -11.4765    1.2851  -22.2255 H   0  0  0  0  0  0  0  0  0  0  0  0
  -13.3611    2.0517  -21.5770 H   0  0  0  0  0  0  0  0  0  0  0  0
  -11.8685    3.5811  -21.6132 H   0  0  0  0  0  0  0  0  0  0  0  0
   -9.9942    2.7020  -22.0845 H   0  0  0  0  0  0  0  0  0  0  0  0
  -11.4623    2.1729  -20.7856 H   0  0  0  0  0  0  0  0  0  0  0  0
  1  2  1  0
  2  3  1  0
  3  4  1  0
  4  5  2  0
  5  6  1  0
  6  7  2  0
  7  8  1  0
  8  9  1  0
  9 10  1  0
 11 10  1  6
 11 12  1  0
 12 13  2  0
 12 14  1  0
 14 15  1  0
 15 16  2  0
 16 17  1  0
 17 18  2  0
 18 19  1  0
 19 20  2  0
 20 21  1  0
 21 22  2  0
 22 23  1  0
 23 24  2  0
 23 25  1  0
 22 26  1  0
 21 27  1  0
 20 28  1  0
 18 29  1  0
 16 30  1  0
 14 31  1  0
 31 32  1  0
 32 33  1  0
 33 34  1  0
 33 35  1  0
 33 36  1  0
 32 37  1  1
 31 38  1  0
 31 39  1  0
 11 40  1  0
 40 41  2  0
 41 42  1  0
 42 43  1  0
 42 44  2  0
 44 45  1  0
 45 46  2  0
 46 47  1  0
 47 48  2  0
 45 49  1  0
 44 50  1  0
 41 51  1  0
 10 52  1  0
 10 53  1  0
  8 54  1  0
  8 55  1  0
  6 56  1  0
  5 57  1  0
  2 58  1  0
  2 59  1  0
  1 60  1  0
  1 61  1  0
  1 62  1  0
  7  3  1  0
 47  9  1  0
 32 11  1  0
 46 40  1  0
 24 15  1  0
 24 19  1  0
M  END
>  <cnnaffinities>  (91) 
[6.84524]

>  <score>  (91) 
6.84524

>  <index>  (91) 
93

>  <Smiles>  (91) 
C(C(n1nc(c(c1C(N1C([C@@]2(C(=O)N(c3c(nc(c4c(c(c(c(c34)[H])[H])[H])[H])[H])[H])C([C@@]2(C([H])([H])[H])[H])([H])[H])c2c(c(F)c(c(c2C1=O)[H])[H])[H])([H])[H])([H])[H])[H])[H])([H])[H])([H])([H])[H]

>  <h>  (91) 
<NA>

>  <Training>  (91) 
True

>  <Success>  (91) 
True

>  <enamine_searched>  (91) 
False

>  <enamine_id>  (91) 
nan

$$$$

     RDKit          3D

 66 71  0  0  0  0  0  0  0  0999 V2000
   -7.3715    3.4620  -21.8563 C   0  0  0  0  0  0  0  0  0  0  0  0
   -8.3365    3.0168  -22.8499 N   0  0  0  0  0  0  0  0  0  0  0  0
   -7.8601    2.2318  -23.8622 C   0  0  0  0  0  0  0  0  0  0  0  0
   -6.6746    1.9695  -23.9986 O   0  0  0  0  0  0  0  0  0  0  0  0
   -8.9041    1.6750  -24.8289 C   0  0  0  0  0  0  0  0  0  0  0  0
   -9.5694    0.5329  -24.2435 N   0  0  0  0  0  0  0  0  0  0  0  0
   -8.8321   -0.7118  -24.1297 C   0  0  0  0  0  0  0  0  0  0  0  0
   -9.1750   -1.4644  -22.8218 C   0  0  2  0  0  0  0  0  0  0  0  0
   -8.5775   -0.7029  -21.6147 C   0  0  0  0  0  0  0  0  0  0  0  0
   -9.0035    0.3152  -21.1140 O   0  0  0  0  0  0  0  0  0  0  0  0
   -7.4458   -1.3685  -21.1969 N   0  0  0  0  0  0  0  0  0  0  0  0
   -6.6230   -0.8203  -20.1780 C   0  0  0  0  0  0  0  0  0  0  0  0
   -6.9383   -1.0478  -18.8629 C   0  0  0  0  0  0  0  0  0  0  0  0
   -6.2423   -0.5618  -17.8051 N   0  0  0  0  0  0  0  0  0  0  0  0
   -5.2001    0.1902  -18.0771 C   0  0  0  0  0  0  0  0  0  0  0  0
   -4.7654    0.5190  -19.3934 C   0  0  0  0  0  0  0  0  0  0  0  0
   -3.6405    1.3547  -19.6314 C   0  0  0  0  0  0  0  0  0  0  0  0
   -3.2570    1.6594  -20.9078 C   0  0  0  0  0  0  0  0  0  0  0  0
   -3.9776    1.1484  -22.0111 C   0  0  0  0  0  0  0  0  0  0  0  0
   -5.0713    0.3388  -21.8098 C   0  0  0  0  0  0  0  0  0  0  0  0
   -5.4928   -0.0019  -20.4937 C   0  0  0  0  0  0  0  0  0  0  0  0
   -5.6280   -0.0226  -22.6713 H   0  0  0  0  0  0  0  0  0  0  0  0
   -3.6726    1.4002  -23.0222 H   0  0  0  0  0  0  0  0  0  0  0  0
   -2.3970    2.2986  -21.0820 H   0  0  0  0  0  0  0  0  0  0  0  0
   -3.1022    1.7501  -18.7729 H   0  0  0  0  0  0  0  0  0  0  0  0
   -4.6289    0.5808  -17.2338 H   0  0  0  0  0  0  0  0  0  0  0  0
   -7.8078   -1.6565  -18.6266 H   0  0  0  0  0  0  0  0  0  0  0  0
   -7.1463   -2.5627  -21.9640 C   0  0  0  0  0  0  0  0  0  0  0  0
   -8.4485   -2.8376  -22.7360 C   0  0  2  0  0  0  0  0  0  0  0  0
   -8.1913   -3.6007  -24.0384 C   0  0  0  0  0  0  0  0  0  0  0  0
   -9.4191   -3.9302  -24.7268 N   0  0  0  0  0  0  0  0  0  0  0  0
   -9.4254   -4.5736  -25.9244 C   0  0  0  0  0  0  0  0  0  0  0  0
  -10.6294   -4.9178  -26.5637 C   0  0  0  0  0  0  0  0  0  0  0  0
  -10.5299   -5.5292  -27.7889 C   0  0  0  0  0  0  0  0  0  0  0  0
   -9.3625   -5.8108  -28.3944 N   0  0  0  0  0  0  0  0  0  0  0  0
   -8.2951   -5.4627  -27.6896 C   0  0  0  0  0  0  0  0  0  0  0  0
   -8.2472   -4.8600  -26.4986 N   0  0  0  0  0  0  0  0  0  0  0  0
   -7.3283   -5.6965  -28.1400 H   0  0  0  0  0  0  0  0  0  0  0  0
  -11.4261   -5.8196  -28.3308 H   0  0  0  0  0  0  0  0  0  0  0  0
  -11.5914   -4.7111  -26.1065 H   0  0  0  0  0  0  0  0  0  0  0  0
  -10.2976   -3.7673  -24.2601 H   0  0  0  0  0  0  0  0  0  0  0  0
   -7.5532   -3.0163  -24.7149 H   0  0  0  0  0  0  0  0  0  0  0  0
   -7.6408   -4.5257  -23.8256 H   0  0  0  0  0  0  0  0  0  0  0  0
   -9.0649   -3.4903  -22.1128 H   0  0  0  0  0  0  0  0  0  0  0  0
   -6.8797   -3.3915  -21.2997 H   0  0  0  0  0  0  0  0  0  0  0  0
   -6.3055   -2.3958  -22.6569 H   0  0  0  0  0  0  0  0  0  0  0  0
  -10.6848   -1.5283  -22.6984 C   0  0  0  0  0  0  0  0  0  0  0  0
  -11.2974   -2.4772  -21.8740 C   0  0  0  0  0  0  0  0  0  0  0  0
  -12.6696   -2.4659  -21.7099 C   0  0  0  0  0  0  0  0  0  0  0  0
  -13.3931   -3.6098  -20.6231 Cl  0  0  0  0  0  0  0  0  0  0  0  0
  -13.4846   -1.5278  -22.3419 C   0  0  0  0  0  0  0  0  0  0  0  0
  -12.8841   -0.5722  -23.1336 C   0  0  0  0  0  0  0  0  0  0  0  0
  -11.5014   -0.5548  -23.2895 C   0  0  0  0  0  0  0  0  0  0  0  0
  -10.9096    0.6052  -24.0147 C   0  0  0  0  0  0  0  0  0  0  0  0
  -11.5850    1.5716  -24.3521 O   0  0  0  0  0  0  0  0  0  0  0  0
  -13.4584    0.2036  -23.6261 H   0  0  0  0  0  0  0  0  0  0  0  0
  -14.5550   -1.5310  -22.1647 H   0  0  0  0  0  0  0  0  0  0  0  0
  -10.7197   -3.1970  -21.3029 H   0  0  0  0  0  0  0  0  0  0  0  0
   -7.7601   -0.4905  -24.1708 H   0  0  0  0  0  0  0  0  0  0  0  0
   -9.0764   -1.3636  -24.9770 H   0  0  0  0  0  0  0  0  0  0  0  0
   -9.6803    2.4108  -25.0649 H   0  0  0  0  0  0  0  0  0  0  0  0
   -8.3818    1.3710  -25.7425 H   0  0  0  0  0  0  0  0  0  0  0  0
   -9.2949    2.8979  -22.5327 H   0  0  0  0  0  0  0  0  0  0  0  0
   -7.8813    3.9473  -21.0169 H   0  0  0  0  0  0  0  0  0  0  0  0
   -6.7738    2.6024  -21.5175 H   0  0  0  0  0  0  0  0  0  0  0  0
   -6.6850    4.1852  -22.3061 H   0  0  0  0  0  0  0  0  0  0  0  0
  1  2  1  0
  2  3  1  0
  3  4  2  0
  3  5  1  0
  5  6  1  0
  6  7  1  0
  8  7  1  6
  8  9  1  0
  9 10  2  0
  9 11  1  0
 11 12  1  0
 12 13  2  0
 13 14  1  0
 14 15  2  0
 15 16  1  0
 16 17  2  0
 17 18  1  0
 18 19  2  0
 19 20  1  0
 20 21  2  0
 20 22  1  0
 19 23  1  0
 18 24  1  0
 17 25  1  0
 15 26  1  0
 13 27  1  0
 11 28  1  0
 28 29  1  0
 29 30  1  0
 30 31  1  0
 31 32  1  0
 32 33  2  0
 33 34  1  0
 34 35  2  0
 35 36  1  0
 36 37  2  0
 36 38  1  0
 34 39  1  0
 33 40  1  0
 31 41  1  0
 30 42  1  0
 30 43  1  0
 29 44  1  1
 28 45  1  0
 28 46  1  0
  8 47  1  0
 47 48  2  0
 48 49  1  0
 49 50  1  0
 49 51  2  0
 51 52  1  0
 52 53  2  0
 53 54  1  0
 54 55  2  0
 52 56  1  0
 51 57  1  0
 48 58  1  0
  7 59  1  0
  7 60  1  0
  5 61  1  0
  5 62  1  0
  2 63  1  0
  1 64  1  0
  1 65  1  0
  1 66  1  0
 54  6  1  0
 29  8  1  0
 37 32  1  0
 53 47  1  0
 21 12  1  0
 21 16  1  0
M  END
>  <cnnaffinities>  (92) 
[6.62182, 7.00386]

>  <score>  (92) 
6.62182

>  <index>  (92) 
95

>  <Smiles>  (92) 
C(N(C(=O)C(N1C([C@@]2(C(=O)N(c3c(nc(c4c(c(c(c(c34)[H])[H])[H])[H])[H])[H])C([C@@]2(C(N(c2c(c(nc(n2)[H])[H])[H])[H])([H])[H])[H])([H])[H])c2c(c(Cl)c(c(c2C1=O)[H])[H])[H])([H])[H])([H])[H])[H])([H])([H])[H]

>  <h>  (92) 
<NA>

>  <Training>  (92) 
True

>  <Success>  (92) 
True

>  <enamine_searched>  (92) 
False

>  <enamine_id>  (92) 
nan

$$$$

     RDKit          3D

 66 70  0  0  0  0  0  0  0  0999 V2000
   -7.4066    3.4745  -21.8342 C   0  0  0  0  0  0  0  0  0  0  0  0
   -8.3832    3.0086  -22.8040 N   0  0  0  0  0  0  0  0  0  0  0  0
   -7.9048    2.2478  -23.8314 C   0  0  0  0  0  0  0  0  0  0  0  0
   -6.7133    2.0157  -23.9792 O   0  0  0  0  0  0  0  0  0  0  0  0
   -8.9488    1.6901  -24.7973 C   0  0  0  0  0  0  0  0  0  0  0  0
   -9.5717    0.5038  -24.2479 N   0  0  0  0  0  0  0  0  0  0  0  0
   -8.7866   -0.7124  -24.1180 C   0  0  0  0  0  0  0  0  0  0  0  0
   -9.1211   -1.4964  -22.8226 C   0  0  2  0  0  0  0  0  0  0  0  0
   -8.5741   -0.7411  -21.5920 C   0  0  0  0  0  0  0  0  0  0  0  0
   -9.0456    0.2480  -21.0655 O   0  0  0  0  0  0  0  0  0  0  0  0
   -7.4246   -1.3717  -21.1771 N   0  0  0  0  0  0  0  0  0  0  0  0
   -6.6139   -0.8077  -20.1621 C   0  0  0  0  0  0  0  0  0  0  0  0
   -6.9281   -1.0402  -18.8499 C   0  0  0  0  0  0  0  0  0  0  0  0
   -6.2312   -0.5521  -17.7941 N   0  0  0  0  0  0  0  0  0  0  0  0
   -5.1897    0.1993  -18.0684 C   0  0  0  0  0  0  0  0  0  0  0  0
   -4.7536    0.5242  -19.3850 C   0  0  0  0  0  0  0  0  0  0  0  0
   -3.6283    1.3572  -19.6289 C   0  0  0  0  0  0  0  0  0  0  0  0
   -3.2474    1.6594  -20.9059 C   0  0  0  0  0  0  0  0  0  0  0  0
   -3.9723    1.1485  -22.0072 C   0  0  0  0  0  0  0  0  0  0  0  0
   -5.0664    0.3425  -21.8023 C   0  0  0  0  0  0  0  0  0  0  0  0
   -5.4830    0.0049  -20.4838 C   0  0  0  0  0  0  0  0  0  0  0  0
   -5.6274   -0.0166  -22.6621 H   0  0  0  0  0  0  0  0  0  0  0  0
   -3.6693    1.3988  -23.0192 H   0  0  0  0  0  0  0  0  0  0  0  0
   -2.3889    2.3004  -21.0841 H   0  0  0  0  0  0  0  0  0  0  0  0
   -3.0886    1.7544  -18.7729 H   0  0  0  0  0  0  0  0  0  0  0  0
   -4.6217    0.5927  -17.2234 H   0  0  0  0  0  0  0  0  0  0  0  0
   -7.7937   -1.6545  -18.6131 H   0  0  0  0  0  0  0  0  0  0  0  0
   -7.0666   -2.5392  -21.9575 C   0  0  0  0  0  0  0  0  0  0  0  0
   -8.3432   -2.8438  -22.7548 C   0  0  2  0  0  0  0  0  0  0  0  0
   -8.0405   -3.5469  -24.0808 C   0  0  0  0  0  0  0  0  0  0  0  0
   -9.2088   -3.8196  -24.8252 O   0  0  0  0  0  0  0  0  0  0  0  0
   -9.7996   -5.1013  -24.6027 C   0  0  0  0  0  0  0  0  0  0  0  0
  -11.2908   -4.9092  -24.8110 C   0  0  0  0  0  0  0  0  0  0  0  0
  -11.8390   -5.8513  -24.7049 H   0  0  0  0  0  0  0  0  0  0  0  0
  -11.6844   -4.1863  -24.0919 H   0  0  0  0  0  0  0  0  0  0  0  0
  -11.4588   -4.5191  -25.8179 H   0  0  0  0  0  0  0  0  0  0  0  0
   -9.2100   -6.1420  -25.5566 C   0  0  0  0  0  0  0  0  0  0  0  0
   -9.6782   -7.1218  -25.3962 H   0  0  0  0  0  0  0  0  0  0  0  0
   -8.1292   -6.2555  -25.4099 H   0  0  0  0  0  0  0  0  0  0  0  0
   -9.3859   -5.8379  -26.5945 H   0  0  0  0  0  0  0  0  0  0  0  0
   -9.6050   -5.4234  -23.5646 H   0  0  0  0  0  0  0  0  0  0  0  0
   -7.4656   -4.4694  -23.8947 H   0  0  0  0  0  0  0  0  0  0  0  0
   -7.4196   -2.8980  -24.7099 H   0  0  0  0  0  0  0  0  0  0  0  0
   -8.9598   -3.5237  -22.1646 H   0  0  0  0  0  0  0  0  0  0  0  0
   -6.2162   -2.3309  -22.6259 H   0  0  0  0  0  0  0  0  0  0  0  0
   -6.7772   -3.3633  -21.2981 H   0  0  0  0  0  0  0  0  0  0  0  0
  -10.6282   -1.6158  -22.7288 C   0  0  0  0  0  0  0  0  0  0  0  0
  -11.2208   -2.5585  -21.8819 C   0  0  0  0  0  0  0  0  0  0  0  0
  -12.5964   -2.5872  -21.7418 C   0  0  0  0  0  0  0  0  0  0  0  0
  -13.3208   -3.6424  -20.5687 Cl  0  0  0  0  0  0  0  0  0  0  0  0
  -13.4350   -1.7437  -22.4712 C   0  0  0  0  0  0  0  0  0  0  0  0
  -12.8543   -0.7870  -23.2733 C   0  0  0  0  0  0  0  0  0  0  0  0
  -11.4697   -0.6880  -23.3551 C   0  0  0  0  0  0  0  0  0  0  0  0
  -10.9158    0.5199  -24.0310 C   0  0  0  0  0  0  0  0  0  0  0  0
  -11.6229    1.4722  -24.3403 O   0  0  0  0  0  0  0  0  0  0  0  0
  -13.4447   -0.0599  -23.8177 H   0  0  0  0  0  0  0  0  0  0  0  0
  -14.5104   -1.8147  -22.3525 H   0  0  0  0  0  0  0  0  0  0  0  0
  -10.6163   -3.2427  -21.2953 H   0  0  0  0  0  0  0  0  0  0  0  0
   -8.9834   -1.3770  -24.9667 H   0  0  0  0  0  0  0  0  0  0  0  0
   -7.7254   -0.4440  -24.1312 H   0  0  0  0  0  0  0  0  0  0  0  0
   -9.7570    2.4019  -24.9999 H   0  0  0  0  0  0  0  0  0  0  0  0
   -8.4325    1.4460  -25.7311 H   0  0  0  0  0  0  0  0  0  0  0  0
   -9.3270    2.8532  -22.4680 H   0  0  0  0  0  0  0  0  0  0  0  0
   -6.7941    2.6233  -21.5022 H   0  0  0  0  0  0  0  0  0  0  0  0
   -6.7326    4.1931  -22.3046 H   0  0  0  0  0  0  0  0  0  0  0  0
   -7.8978    3.9849  -20.9993 H   0  0  0  0  0  0  0  0  0  0  0  0
  1  2  1  0
  2  3  1  0
  3  4  2  0
  3  5  1  0
  5  6  1  0
  6  7  1  0
  8  7  1  6
  8  9  1  0
  9 10  2  0
  9 11  1  0
 11 12  1  0
 12 13  2  0
 13 14  1  0
 14 15  2  0
 15 16  1  0
 16 17  2  0
 17 18  1  0
 18 19  2  0
 19 20  1  0
 20 21  2  0
 20 22  1  0
 19 23  1  0
 18 24  1  0
 17 25  1  0
 15 26  1  0
 13 27  1  0
 11 28  1  0
 28 29  1  0
 29 30  1  0
 30 31  1  0
 31 32  1  0
 32 33  1  0
 33 34  1  0
 33 35  1  0
 33 36  1  0
 32 37  1  0
 37 38  1  0
 37 39  1  0
 37 40  1  0
 32 41  1  0
 30 42  1  0
 30 43  1  0
 29 44  1  1
 28 45  1  0
 28 46  1  0
  8 47  1  0
 47 48  2  0
 48 49  1  0
 49 50  1  0
 49 51  2  0
 51 52  1  0
 52 53  2  0
 53 54  1  0
 54 55  2  0
 52 56  1  0
 51 57  1  0
 48 58  1  0
  7 59  1  0
  7 60  1  0
  5 61  1  0
  5 62  1  0
  2 63  1  0
  1 64  1  0
  1 65  1  0
  1 66  1  0
 54  6  1  0
 29  8  1  0
 53 47  1  0
 21 12  1  0
 21 16  1  0
M  END
>  <cnnaffinities>  (93) 
[6.62916, 6.99063, 6.41658, 6.65481, 6.67821]

>  <score>  (93) 
6.62916

>  <index>  (93) 
96

>  <Smiles>  (93) 
C(N(C(=O)C(N1C([C@@]2(C(=O)N(c3c(nc(c4c(c(c(c(c34)[H])[H])[H])[H])[H])[H])C([C@@]2(C(OC(C([H])([H])[H])(C([H])([H])[H])[H])([H])[H])[H])([H])[H])c2c(c(Cl)c(c(c2C1=O)[H])[H])[H])([H])[H])([H])[H])[H])([H])([H])[H]

>  <h>  (93) 
<NA>

>  <Training>  (93) 
True

>  <Success>  (93) 
True

>  <enamine_searched>  (93) 
False

>  <enamine_id>  (93) 
nan

$$$$

     RDKit          3D

 40 43  0  0  0  0  0  0  0  0999 V2000
   -8.3035   -1.8553  -26.5135 C   0  0  0  0  0  0  0  0  0  0  0  0
   -7.4883   -2.9617  -25.8442 C   0  0  2  0  0  0  0  0  0  0  0  0
   -8.3341   -4.2144  -25.6200 C   0  0  0  0  0  0  0  0  0  0  0  0
   -9.2692   -4.0325  -24.5767 O   0  0  0  0  0  0  0  0  0  0  0  0
   -8.6159   -3.8825  -23.3342 C   0  0  0  0  0  0  0  0  0  0  0  0
   -7.7646   -2.5997  -23.2878 C   0  0  1  0  0  0  0  0  0  0  0  0
   -6.8356   -2.5415  -24.5201 C   0  0  0  0  0  0  0  0  0  0  0  0
   -6.4351   -1.5223  -24.6038 H   0  0  0  0  0  0  0  0  0  0  0  0
   -5.9760   -3.1927  -24.3191 H   0  0  0  0  0  0  0  0  0  0  0  0
   -8.5848   -1.4127  -23.1247 N   0  0  0  0  0  0  0  0  0  0  0  0
   -8.3721   -0.6976  -21.9744 C   0  0  0  0  0  0  0  0  0  0  0  0
   -8.8970    0.3269  -21.6093 O   0  0  0  0  0  0  0  0  0  0  0  0
   -7.3725   -1.4140  -21.2648 N   0  0  0  0  0  0  0  0  0  0  0  0
   -6.5902   -0.8368  -20.2030 C   0  0  0  0  0  0  0  0  0  0  0  0
   -6.8921   -1.0562  -18.8809 C   0  0  0  0  0  0  0  0  0  0  0  0
   -6.2016   -0.5441  -17.8204 N   0  0  0  0  0  0  0  0  0  0  0  0
   -5.1611    0.2182  -18.0682 C   0  0  0  0  0  0  0  0  0  0  0  0
   -4.7247    0.5320  -19.3883 C   0  0  0  0  0  0  0  0  0  0  0  0
   -3.5949    1.3642  -19.6278 C   0  0  0  0  0  0  0  0  0  0  0  0
   -3.2073    1.6450  -20.9124 C   0  0  0  0  0  0  0  0  0  0  0  0
   -3.9260    1.1113  -22.0032 C   0  0  0  0  0  0  0  0  0  0  0  0
   -5.0190    0.3082  -21.7937 C   0  0  0  0  0  0  0  0  0  0  0  0
   -5.4514   -0.0053  -20.4782 C   0  0  0  0  0  0  0  0  0  0  0  0
   -5.5683   -0.0965  -22.6362 H   0  0  0  0  0  0  0  0  0  0  0  0
   -3.6160    1.3397  -23.0179 H   0  0  0  0  0  0  0  0  0  0  0  0
   -2.3491    2.2824  -21.1046 H   0  0  0  0  0  0  0  0  0  0  0  0
   -3.0478    1.7777  -18.7831 H   0  0  0  0  0  0  0  0  0  0  0  0
   -4.6020    0.6262  -17.2186 H   0  0  0  0  0  0  0  0  0  0  0  0
   -7.7403   -1.6783  -18.6106 H   0  0  0  0  0  0  0  0  0  0  0  0
   -6.9516   -2.5411  -21.9962 C   0  0  0  0  0  0  0  0  0  0  0  0
   -6.0903   -3.3117  -21.6546 O   0  0  0  0  0  0  0  0  0  0  0  0
   -9.3143   -1.1613  -23.7679 H   0  0  0  0  0  0  0  0  0  0  0  0
   -9.3846   -3.8331  -22.5550 H   0  0  0  0  0  0  0  0  0  0  0  0
   -7.9771   -4.7552  -23.1336 H   0  0  0  0  0  0  0  0  0  0  0  0
   -7.6982   -5.0825  -25.3802 H   0  0  0  0  0  0  0  0  0  0  0  0
   -8.9122   -4.4613  -26.5167 H   0  0  0  0  0  0  0  0  0  0  0  0
   -6.6805   -3.2353  -26.5362 H   0  0  0  0  0  0  0  0  0  0  0  0
   -7.7452   -0.9148  -26.5393 H   0  0  0  0  0  0  0  0  0  0  0  0
   -8.5381   -2.1309  -27.5472 H   0  0  0  0  0  0  0  0  0  0  0  0
   -9.2509   -1.6759  -25.9995 H   0  0  0  0  0  0  0  0  0  0  0  0
  1  2  1  0
  2  3  1  0
  3  4  1  0
  4  5  1  0
  5  6  1  0
  6  7  1  0
  7  8  1  0
  7  9  1  0
  6 10  1  6
 10 11  1  0
 11 12  2  0
 11 13  1  0
 13 14  1  0
 14 15  2  0
 15 16  1  0
 16 17  2  0
 17 18  1  0
 18 19  2  0
 19 20  1  0
 20 21  2  0
 21 22  1  0
 22 23  2  0
 22 24  1  0
 21 25  1  0
 20 26  1  0
 19 27  1  0
 17 28  1  0
 15 29  1  0
 13 30  1  0
 30 31  2  0
 10 32  1  0
  5 33  1  0
  5 34  1  0
  3 35  1  0
  3 36  1  0
  2 37  1  6
  1 38  1  0
  1 39  1  0
  1 40  1  0
  7  2  1  0
 23 14  1  0
 30  6  1  0
 23 18  1  0
M  END
>  <cnnaffinities>  (94) 
[5.04544, 5.07572, 5.2439, 5.03291, 5.0627]

>  <score>  (94) 
5.04544

>  <index>  (94) 
97

>  <Smiles>  (94) 
C([C@@]1(C(OC([C@@]2(C1([H])[H])N(C(=O)N(c1c(nc(c3c(c(c(c(c13)[H])[H])[H])[H])[H])[H])C2=O)[H])([H])[H])([H])[H])[H])([H])([H])[H]

>  <h>  (94) 
<NA>

>  <Training>  (94) 
True

>  <Success>  (94) 
True

>  <enamine_searched>  (94) 
False

>  <enamine_id>  (94) 
nan

$$$$
