
     RDKit          3D

 48 52  0  0  0  0  0  0  0  0999 V2000
   -9.1735   -1.1289  -23.9598 C   0  0  0  0  0  0  0  0  0  0  0  0
   -8.4178   -1.5765  -22.8117 N   0  0  0  0  0  0  0  0  0  0  0  0
   -8.2118   -0.7643  -21.7269 C   0  0  0  0  0  0  0  0  0  0  0  0
   -8.6971    0.3208  -21.5061 O   0  0  0  0  0  0  0  0  0  0  0  0
   -7.3003   -1.4355  -20.8937 N   0  0  0  0  0  0  0  0  0  0  0  0
   -6.5733   -0.7952  -19.8526 C   0  0  0  0  0  0  0  0  0  0  0  0
   -6.9679   -0.9803  -18.5576 C   0  0  0  0  0  0  0  0  0  0  0  0
   -6.3621   -0.4114  -17.4842 N   0  0  0  0  0  0  0  0  0  0  0  0
   -5.3274    0.3608  -17.7158 C   0  0  0  0  0  0  0  0  0  0  0  0
   -4.8061    0.6296  -19.0155 C   0  0  0  0  0  0  0  0  0  0  0  0
   -3.6790    1.4703  -19.2144 C   0  0  0  0  0  0  0  0  0  0  0  0
   -3.2036    1.6983  -20.4762 C   0  0  0  0  0  0  0  0  0  0  0  0
   -3.8271    1.0978  -21.5934 C   0  0  0  0  0  0  0  0  0  0  0  0
   -4.9174    0.2814  -21.4292 C   0  0  0  0  0  0  0  0  0  0  0  0
   -5.4390    0.0342  -20.1280 C   0  0  0  0  0  0  0  0  0  0  0  0
   -5.3838   -0.1818  -22.2933 H   0  0  0  0  0  0  0  0  0  0  0  0
   -3.4409    1.2875  -22.5907 H   0  0  0  0  0  0  0  0  0  0  0  0
   -2.3445    2.3460  -20.6308 H   0  0  0  0  0  0  0  0  0  0  0  0
   -3.2161    1.9279  -18.3439 H   0  0  0  0  0  0  0  0  0  0  0  0
   -4.8406    0.8181  -16.8518 H   0  0  0  0  0  0  0  0  0  0  0  0
   -7.8229   -1.6203  -18.3521 H   0  0  0  0  0  0  0  0  0  0  0  0
   -6.9828   -2.6985  -21.3825 C   0  0  0  0  0  0  0  0  0  0  0  0
   -6.2697   -3.5031  -20.8342 O   0  0  0  0  0  0  0  0  0  0  0  0
   -7.7152   -2.8272  -22.7032 C   0  0  0  0  0  0  0  0  0  0  0  0
   -6.7925   -3.2950  -23.8430 C   0  0  0  0  0  0  0  0  0  0  0  0
   -7.3510   -4.6551  -23.6897 N   0  0  0  0  0  0  0  0  0  0  0  0
   -7.3806   -5.6656  -25.0362 S   0  0  0  0  0  0  0  0  0  0  0  0
   -6.4721   -6.7683  -24.7967 O   0  0  0  0  0  0  0  0  0  0  0  0
   -7.2043   -4.7941  -26.1921 O   0  0  0  0  0  0  0  0  0  0  0  0
   -9.0124   -6.3869  -25.1256 C   0  0  0  0  0  0  0  0  0  0  0  0
  -10.1345   -5.3941  -25.2629 C   0  0  0  0  0  0  0  0  0  0  0  0
  -11.3867   -6.1138  -25.8076 C   0  0  0  0  0  0  0  0  0  0  0  0
  -11.0972   -5.8900  -25.9951 C   0  0  0  0  0  0  0  0  0  0  0  0
   -8.9175   -7.3651  -26.0472 C   0  0  0  0  0  0  0  0  0  0  0  0
   -8.9959   -7.6547  -25.9161 C   0  0  0  0  0  0  0  0  0  0  0  0
   -8.3062   -8.0128  -26.8489 H   0  0  0  0  0  0  0  0  0  0  0  0
   -9.7334   -8.6282  -25.3024 H   0  0  0  0  0  0  0  0  0  0  0  0
  -11.8596   -6.9161  -25.0976 H   0  0  0  0  0  0  0  0  0  0  0  0
  -11.7231   -6.1029  -27.0023 H   0  0  0  0  0  0  0  0  0  0  0  0
   -9.9854   -4.8968  -26.1652 H   0  0  0  0  0  0  0  0  0  0  0  0
   -8.4620   -4.1744  -22.8335 C   0  0  0  0  0  0  0  0  0  0  0  0
   -8.5553   -4.7087  -21.8812 H   0  0  0  0  0  0  0  0  0  0  0  0
   -9.4186   -4.1237  -23.3562 H   0  0  0  0  0  0  0  0  0  0  0  0
   -5.7177   -3.2428  -23.6408 H   0  0  0  0  0  0  0  0  0  0  0  0
   -7.0185   -2.8436  -24.8142 H   0  0  0  0  0  0  0  0  0  0  0  0
   -9.0784   -0.0437  -24.0215 H   0  0  0  0  0  0  0  0  0  0  0  0
   -8.7696   -1.5700  -24.8758 H   0  0  0  0  0  0  0  0  0  0  0  0
  -10.2369   -1.3832  -23.8825 H   0  0  0  0  0  0  0  0  0  0  0  0
  1  2  1  0
  2  3  1  0
  3  4  2  0
  3  5  1  0
  5  6  1  0
  6  7  2  0
  7  8  1  0
  8  9  2  0
  9 10  1  0
 10 11  2  0
 11 12  1  0
 12 13  2  0
 13 14  1  0
 14 15  2  0
 14 16  1  0
 13 17  1  0
 12 18  1  0
 11 19  1  0
  9 20  1  0
  7 21  1  0
  5 22  1  0
 22 23  2  0
 22 24  1  0
 24 25  1  0
 25 26  1  0
 26 27  1  0
 27 28  2  0
 27 29  2  0
 27 30  1  0
 30 31  2  0
 31 32  1  0
 32 33  2  0
 33 34  1  0
 34 35  2  0
 35 36  1  0
 34 37  1  0
 33 38  1  0
 32 39  1  0
 31 40  1  0
 26 41  1  0
 41 42  1  0
 41 43  1  0
 25 44  1  0
 25 45  1  0
  1 46  1  0
  1 47  1  0
  1 48  1  0
 24  2  1  0
 35 30  1  0
 15  6  1  0
 41 24  1  0
 15 10  1  0
M  END
>  <cnnaffinities>  (1) 
[5.4534]

>  <score>  (1) 
5.4534

>  <index>  (1) 
0

>  <Smiles>  (1) 
C(N1C(=O)N(c2c(nc(c3c(c(c(c(c23)[H])[H])[H])[H])[H])[H])C(=O)C21C(N(S(=O)(=O)c1c(c(c(c(c1[H])[H])[H])[H])[H])C2([H])[H])([H])[H])([H])([H])[H]

>  <h>  (1) 
<NA>

>  <Training>  (1) 
True

>  <Success>  (1) 
True

>  <enamine_searched>  (1) 
False

>  <enamine_id>  (1) 
nan

$$$$

     RDKit          3D

 56 61  0  0  0  0  0  0  0  0999 V2000
   -7.8670   -3.5921  -24.1109 C   0  0  0  0  0  0  0  0  0  0  0  0
   -8.2727   -2.8569  -22.8258 C   0  0  1  0  0  0  0  0  0  0  0  0
   -7.0695   -2.6138  -21.8867 C   0  0  0  0  0  0  0  0  0  0  0  0
   -7.3992   -1.3817  -21.1980 N   0  0  0  0  0  0  0  0  0  0  0  0
   -6.5991   -0.8102  -20.1693 C   0  0  0  0  0  0  0  0  0  0  0  0
   -6.9072   -1.0436  -18.8558 C   0  0  0  0  0  0  0  0  0  0  0  0
   -6.2071   -0.5490  -17.8032 N   0  0  0  0  0  0  0  0  0  0  0  0
   -5.1725    0.2110  -18.0744 C   0  0  0  0  0  0  0  0  0  0  0  0
   -4.7343    0.5343  -19.3915 C   0  0  0  0  0  0  0  0  0  0  0  0
   -3.6053    1.3664  -19.6381 C   0  0  0  0  0  0  0  0  0  0  0  0
   -3.2088    1.6408  -20.9154 C   0  0  0  0  0  0  0  0  0  0  0  0
   -3.9144    1.0897  -22.0091 C   0  0  0  0  0  0  0  0  0  0  0  0
   -5.0051    0.2784  -21.7985 C   0  0  0  0  0  0  0  0  0  0  0  0
   -5.4558   -0.0071  -20.4811 C   0  0  0  0  0  0  0  0  0  0  0  0
   -5.5638   -0.0948  -22.6526 H   0  0  0  0  0  0  0  0  0  0  0  0
   -3.6207    1.3406  -23.0237 H   0  0  0  0  0  0  0  0  0  0  0  0
   -2.3574    2.2937  -21.0982 H   0  0  0  0  0  0  0  0  0  0  0  0
   -3.0755    1.7795  -18.7823 H   0  0  0  0  0  0  0  0  0  0  0  0
   -4.6212    0.6153  -17.2239 H   0  0  0  0  0  0  0  0  0  0  0  0
   -7.7604   -1.6694  -18.6007 H   0  0  0  0  0  0  0  0  0  0  0  0
   -8.4315   -0.6717  -21.7678 C   0  0  0  0  0  0  0  0  0  0  0  0
   -8.8313    0.3901  -21.3427 O   0  0  0  0  0  0  0  0  0  0  0  0
   -8.9596   -1.4667  -22.9993 C   0  0  1  0  0  0  0  0  0  0  0  0
   -8.5038   -0.7859  -24.3189 C   0  0  0  0  0  0  0  0  0  0  0  0
   -9.1880    0.4653  -24.5611 N   0  0  0  0  0  0  0  0  0  0  0  0
   -8.4127    1.6609  -24.8706 C   0  0  0  0  0  0  0  0  0  0  0  0
   -8.1070    2.4881  -23.6486 C   0  0  0  0  0  0  0  0  0  0  0  0
   -8.9490    3.4370  -23.0245 C   0  0  0  0  0  0  0  0  0  0  0  0
   -8.1651    3.9760  -22.0291 C   0  0  0  0  0  0  0  0  0  0  0  0
   -6.9855    3.3233  -22.0676 N   0  0  0  0  0  0  0  0  0  0  0  0
   -6.9237    2.4076  -23.0441 N   0  0  0  0  0  0  0  0  0  0  0  0
   -6.2526    3.3964  -21.3798 H   0  0  0  0  0  0  0  0  0  0  0  0
   -8.3132    4.7618  -21.3031 H   0  0  0  0  0  0  0  0  0  0  0  0
   -9.9921    3.5943  -23.2644 H   0  0  0  0  0  0  0  0  0  0  0  0
   -9.0169    2.2450  -25.5702 H   0  0  0  0  0  0  0  0  0  0  0  0
   -7.4750    1.3721  -25.3653 H   0  0  0  0  0  0  0  0  0  0  0  0
  -10.5173    0.6461  -24.2971 C   0  0  0  0  0  0  0  0  0  0  0  0
  -11.0781    1.7186  -24.4963 O   0  0  0  0  0  0  0  0  0  0  0  0
  -11.2170   -0.5145  -23.6527 C   0  0  0  0  0  0  0  0  0  0  0  0
  -12.6116   -0.5281  -23.6303 C   0  0  0  0  0  0  0  0  0  0  0  0
  -13.2908   -1.4206  -22.8284 C   0  0  0  0  0  0  0  0  0  0  0  0
  -12.5468   -2.2858  -22.0315 C   0  0  0  0  0  0  0  0  0  0  0  0
  -13.2057   -3.1022  -21.1913 F   0  0  0  0  0  0  0  0  0  0  0  0
  -11.1682   -2.3291  -22.0744 C   0  0  0  0  0  0  0  0  0  0  0  0
  -10.4797   -1.4839  -22.9596 C   0  0  0  0  0  0  0  0  0  0  0  0
  -10.6665   -2.9861  -21.3693 H   0  0  0  0  0  0  0  0  0  0  0  0
  -14.3717   -1.4267  -22.7590 H   0  0  0  0  0  0  0  0  0  0  0  0
  -13.1330    0.2161  -24.2212 H   0  0  0  0  0  0  0  0  0  0  0  0
   -8.6750   -1.4770  -25.1549 H   0  0  0  0  0  0  0  0  0  0  0  0
   -7.4304   -0.5751  -24.2477 H   0  0  0  0  0  0  0  0  0  0  0  0
   -6.1336   -2.5120  -22.4597 H   0  0  0  0  0  0  0  0  0  0  0  0
   -6.9313   -3.4299  -21.1677 H   0  0  0  0  0  0  0  0  0  0  0  0
   -8.9974   -3.4813  -22.2960 H   0  0  0  0  0  0  0  0  0  0  0  0
   -7.4601   -4.5826  -23.8813 H   0  0  0  0  0  0  0  0  0  0  0  0
   -7.0924   -3.0394  -24.6570 H   0  0  0  0  0  0  0  0  0  0  0  0
   -8.7149   -3.7287  -24.7923 H   0  0  0  0  0  0  0  0  0  0  0  0
  1  2  1  0
  2  3  1  0
  3  4  1  0
  4  5  1  0
  5  6  2  0
  6  7  1  0
  7  8  2  0
  8  9  1  0
  9 10  2  0
 10 11  1  0
 11 12  2  0
 12 13  1  0
 13 14  2  0
 13 15  1  0
 12 16  1  0
 11 17  1  0
 10 18  1  0
  8 19  1  0
  6 20  1  0
  4 21  1  0
 21 22  2  0
 21 23  1  0
 23 24  1  6
 24 25  1  0
 25 26  1  0
 26 27  1  0
 27 28  1  0
 28 29  2  0
 29 30  1  0
 30 31  1  0
 30 32  1  0
 29 33  1  0
 28 34  1  0
 26 35  1  0
 26 36  1  0
 25 37  1  0
 37 38  2  0
 37 39  1  0
 39 40  2  0
 40 41  1  0
 41 42  2  0
 42 43  1  0
 42 44  1  0
 44 45  2  0
 44 46  1  0
 41 47  1  0
 40 48  1  0
 24 49  1  0
 24 50  1  0
  3 51  1  0
  3 52  1  0
  2 53  1  1
  1 54  1  0
  1 55  1  0
  1 56  1  0
 23  2  1  0
 31 27  2  0
 45 39  1  0
 14  5  1  0
 45 23  1  0
 14  9  1  0
M  END
>  <cnnaffinities>  (2) 
[6.9206]

>  <score>  (2) 
6.9206

>  <index>  (2) 
1

>  <Smiles>  (2) 
C([C@]1(C(N(c2c(nc(c3c(c(c(c(c23)[H])[H])[H])[H])[H])[H])C(=O)[C@]21C(N(C(c1c(c(n(n1)[H])[H])[H])([H])[H])C(=O)c1c(c(c(F)c(c21)[H])[H])[H])([H])[H])([H])[H])[H])([H])([H])[H]

>  <h>  (2) 
<NA>

>  <Training>  (2) 
True

>  <Success>  (2) 
True

>  <enamine_searched>  (2) 
False

>  <enamine_id>  (2) 
nan

$$$$

     RDKit          3D

 55 60  0  0  0  0  0  0  0  0999 V2000
   -7.8648   -3.6263  -24.0859 C   0  0  0  0  0  0  0  0  0  0  0  0
   -8.2749   -2.8699  -22.8153 C   0  0  1  0  0  0  0  0  0  0  0  0
   -7.0805   -2.6294  -21.8665 C   0  0  0  0  0  0  0  0  0  0  0  0
   -7.4029   -1.3852  -21.1957 N   0  0  0  0  0  0  0  0  0  0  0  0
   -6.6026   -0.8069  -20.1716 C   0  0  0  0  0  0  0  0  0  0  0  0
   -6.9050   -1.0449  -18.8554 C   0  0  0  0  0  0  0  0  0  0  0  0
   -6.2049   -0.5500  -17.8037 N   0  0  0  0  0  0  0  0  0  0  0  0
   -5.1711    0.2132  -18.0726 C   0  0  0  0  0  0  0  0  0  0  0  0
   -4.7365    0.5375  -19.3918 C   0  0  0  0  0  0  0  0  0  0  0  0
   -3.6076    1.3694  -19.6365 C   0  0  0  0  0  0  0  0  0  0  0  0
   -3.2115    1.6458  -20.9166 C   0  0  0  0  0  0  0  0  0  0  0  0
   -3.9191    1.0972  -22.0092 C   0  0  0  0  0  0  0  0  0  0  0  0
   -5.0108    0.2869  -21.7982 C   0  0  0  0  0  0  0  0  0  0  0  0
   -5.4600   -0.0003  -20.4801 C   0  0  0  0  0  0  0  0  0  0  0  0
   -5.5619   -0.0976  -22.6511 H   0  0  0  0  0  0  0  0  0  0  0  0
   -3.6197    1.3390  -23.0239 H   0  0  0  0  0  0  0  0  0  0  0  0
   -2.3572    2.2931  -21.0990 H   0  0  0  0  0  0  0  0  0  0  0  0
   -3.0744    1.7800  -18.7834 H   0  0  0  0  0  0  0  0  0  0  0  0
   -4.6193    0.6162  -17.2228 H   0  0  0  0  0  0  0  0  0  0  0  0
   -7.7559   -1.6715  -18.5985 H   0  0  0  0  0  0  0  0  0  0  0  0
   -8.4095   -0.6634  -21.7975 C   0  0  0  0  0  0  0  0  0  0  0  0
   -8.7857    0.4197  -21.4065 O   0  0  0  0  0  0  0  0  0  0  0  0
   -8.9395   -1.4740  -23.0161 C   0  0  1  0  0  0  0  0  0  0  0  0
   -8.4619   -0.8202  -24.3425 C   0  0  0  0  0  0  0  0  0  0  0  0
   -9.1191    0.4408  -24.6069 N   0  0  0  0  0  0  0  0  0  0  0  0
   -8.3336    1.6268  -24.9365 C   0  0  0  0  0  0  0  0  0  0  0  0
   -8.0451    2.4935  -23.7410 C   0  0  0  0  0  0  0  0  0  0  0  0
   -8.8934    3.4075  -23.0912 C   0  0  0  0  0  0  0  0  0  0  0  0
   -8.2369    3.9355  -22.0645 N   0  0  0  0  0  0  0  0  0  0  0  0
   -7.0682    3.3396  -22.1106 N   0  0  0  0  0  0  0  0  0  0  0  0
   -6.8789    2.4743  -23.0919 N   0  0  0  0  0  0  0  0  0  0  0  0
   -6.3783    3.5055  -21.3956 H   0  0  0  0  0  0  0  0  0  0  0  0
   -9.9213    3.6641  -23.3187 H   0  0  0  0  0  0  0  0  0  0  0  0
   -8.9207    2.1906  -25.6653 H   0  0  0  0  0  0  0  0  0  0  0  0
   -7.3877    1.3236  -25.3990 H   0  0  0  0  0  0  0  0  0  0  0  0
  -10.4468    0.6386  -24.3472 C   0  0  0  0  0  0  0  0  0  0  0  0
  -10.9815    1.7273  -24.5545 O   0  0  0  0  0  0  0  0  0  0  0  0
  -11.1768   -0.5029  -23.7040 C   0  0  0  0  0  0  0  0  0  0  0  0
  -12.5738   -0.4934  -23.6852 C   0  0  0  0  0  0  0  0  0  0  0  0
  -13.2742   -1.3625  -22.8729 C   0  0  0  0  0  0  0  0  0  0  0  0
  -12.5464   -2.2234  -22.0588 C   0  0  0  0  0  0  0  0  0  0  0  0
  -13.2196   -3.0186  -21.2102 F   0  0  0  0  0  0  0  0  0  0  0  0
  -11.1678   -2.2866  -22.0896 C   0  0  0  0  0  0  0  0  0  0  0  0
  -10.4600   -1.4697  -22.9852 C   0  0  0  0  0  0  0  0  0  0  0  0
  -10.6786   -2.9371  -21.3709 H   0  0  0  0  0  0  0  0  0  0  0  0
  -14.3567   -1.3546  -22.8108 H   0  0  0  0  0  0  0  0  0  0  0  0
  -13.0891    0.2444  -24.2885 H   0  0  0  0  0  0  0  0  0  0  0  0
   -7.3840   -0.6318  -24.2699 H   0  0  0  0  0  0  0  0  0  0  0  0
   -8.6413   -1.5169  -25.1718 H   0  0  0  0  0  0  0  0  0  0  0  0
   -6.1369   -2.5497  -22.4303 H   0  0  0  0  0  0  0  0  0  0  0  0
   -6.9593   -3.4379  -21.1372 H   0  0  0  0  0  0  0  0  0  0  0  0
   -9.0125   -3.4799  -22.2874 H   0  0  0  0  0  0  0  0  0  0  0  0
   -7.0782   -3.0918  -24.6326 H   0  0  0  0  0  0  0  0  0  0  0  0
   -8.7065   -3.7618  -24.7746 H   0  0  0  0  0  0  0  0  0  0  0  0
   -7.4726   -4.6187  -23.8402 H   0  0  0  0  0  0  0  0  0  0  0  0
  1  2  1  0
  2  3  1  0
  3  4  1  0
  4  5  1  0
  5  6  2  0
  6  7  1  0
  7  8  2  0
  8  9  1  0
  9 10  2  0
 10 11  1  0
 11 12  2  0
 12 13  1  0
 13 14  2  0
 13 15  1  0
 12 16  1  0
 11 17  1  0
 10 18  1  0
  8 19  1  0
  6 20  1  0
  4 21  1  0
 21 22  2  0
 21 23  1  0
 23 24  1  6
 24 25  1  0
 25 26  1  0
 26 27  1  0
 27 28  1  0
 28 29  2  0
 29 30  1  0
 30 31  1  0
 30 32  1  0
 28 33  1  0
 26 34  1  0
 26 35  1  0
 25 36  1  0
 36 37  2  0
 36 38  1  0
 38 39  2  0
 39 40  1  0
 40 41  2  0
 41 42  1  0
 41 43  1  0
 43 44  2  0
 43 45  1  0
 40 46  1  0
 39 47  1  0
 24 48  1  0
 24 49  1  0
  3 50  1  0
  3 51  1  0
  2 52  1  1
  1 53  1  0
  1 54  1  0
  1 55  1  0
 23  2  1  0
 31 27  2  0
 44 38  1  0
 14  5  1  0
 44 23  1  0
 14  9  1  0
M  END
>  <cnnaffinities>  (3) 
[7.02008, 7.10789, 6.55511, 6.58456, 6.58361, 6.49038, 6.56163]

>  <score>  (3) 
7.02008

>  <index>  (3) 
3

>  <Smiles>  (3) 
C([C@]1(C(N(c2c(nc(c3c(c(c(c(c23)[H])[H])[H])[H])[H])[H])C(=O)[C@]21C(N(C(c1c(nn(n1)[H])[H])([H])[H])C(=O)c1c(c(c(F)c(c21)[H])[H])[H])([H])[H])([H])[H])[H])([H])([H])[H]

>  <h>  (3) 
<NA>

>  <Training>  (3) 
True

>  <Success>  (3) 
True

>  <enamine_searched>  (3) 
False

>  <enamine_id>  (3) 
nan

$$$$

     RDKit          3D

 55 60  0  0  0  0  0  0  0  0999 V2000
   -7.8648   -3.6263  -24.0859 C   0  0  0  0  0  0  0  0  0  0  0  0
   -8.2749   -2.8699  -22.8153 C   0  0  1  0  0  0  0  0  0  0  0  0
   -7.0805   -2.6294  -21.8665 C   0  0  0  0  0  0  0  0  0  0  0  0
   -7.4029   -1.3852  -21.1957 N   0  0  0  0  0  0  0  0  0  0  0  0
   -6.6026   -0.8069  -20.1716 C   0  0  0  0  0  0  0  0  0  0  0  0
   -6.9050   -1.0449  -18.8554 C   0  0  0  0  0  0  0  0  0  0  0  0
   -6.2049   -0.5500  -17.8037 N   0  0  0  0  0  0  0  0  0  0  0  0
   -5.1711    0.2132  -18.0726 C   0  0  0  0  0  0  0  0  0  0  0  0
   -4.7365    0.5375  -19.3918 C   0  0  0  0  0  0  0  0  0  0  0  0
   -3.6076    1.3694  -19.6365 C   0  0  0  0  0  0  0  0  0  0  0  0
   -3.2115    1.6458  -20.9166 C   0  0  0  0  0  0  0  0  0  0  0  0
   -3.9191    1.0972  -22.0092 C   0  0  0  0  0  0  0  0  0  0  0  0
   -5.0108    0.2869  -21.7982 C   0  0  0  0  0  0  0  0  0  0  0  0
   -5.4600   -0.0003  -20.4801 C   0  0  0  0  0  0  0  0  0  0  0  0
   -5.5619   -0.0976  -22.6511 H   0  0  0  0  0  0  0  0  0  0  0  0
   -3.6197    1.3390  -23.0239 H   0  0  0  0  0  0  0  0  0  0  0  0
   -2.3572    2.2931  -21.0990 H   0  0  0  0  0  0  0  0  0  0  0  0
   -3.0744    1.7800  -18.7834 H   0  0  0  0  0  0  0  0  0  0  0  0
   -4.6193    0.6162  -17.2228 H   0  0  0  0  0  0  0  0  0  0  0  0
   -7.7559   -1.6715  -18.5985 H   0  0  0  0  0  0  0  0  0  0  0  0
   -8.4095   -0.6634  -21.7975 C   0  0  0  0  0  0  0  0  0  0  0  0
   -8.7857    0.4197  -21.4065 O   0  0  0  0  0  0  0  0  0  0  0  0
   -8.9395   -1.4740  -23.0161 C   0  0  1  0  0  0  0  0  0  0  0  0
   -8.4619   -0.8202  -24.3425 C   0  0  0  0  0  0  0  0  0  0  0  0
   -9.1191    0.4408  -24.6069 N   0  0  0  0  0  0  0  0  0  0  0  0
   -8.3336    1.6268  -24.9365 C   0  0  0  0  0  0  0  0  0  0  0  0
   -8.0451    2.4935  -23.7410 C   0  0  0  0  0  0  0  0  0  0  0  0
   -8.8934    3.4075  -23.0912 C   0  0  0  0  0  0  0  0  0  0  0  0
   -8.2369    3.9355  -22.0645 N   0  0  0  0  0  0  0  0  0  0  0  0
   -7.0682    3.3396  -22.1106 N   0  0  0  0  0  0  0  0  0  0  0  0
   -6.8789    2.4743  -23.0919 N   0  0  0  0  0  0  0  0  0  0  0  0
   -6.3783    3.5055  -21.3956 H   0  0  0  0  0  0  0  0  0  0  0  0
   -9.9213    3.6641  -23.3187 H   0  0  0  0  0  0  0  0  0  0  0  0
   -8.9207    2.1906  -25.6653 H   0  0  0  0  0  0  0  0  0  0  0  0
   -7.3877    1.3236  -25.3990 H   0  0  0  0  0  0  0  0  0  0  0  0
  -10.4468    0.6386  -24.3472 C   0  0  0  0  0  0  0  0  0  0  0  0
  -10.9815    1.7273  -24.5545 O   0  0  0  0  0  0  0  0  0  0  0  0
  -11.1768   -0.5029  -23.7040 C   0  0  0  0  0  0  0  0  0  0  0  0
  -12.5738   -0.4934  -23.6852 C   0  0  0  0  0  0  0  0  0  0  0  0
  -13.2742   -1.3625  -22.8729 C   0  0  0  0  0  0  0  0  0  0  0  0
  -12.5464   -2.2234  -22.0588 C   0  0  0  0  0  0  0  0  0  0  0  0
  -13.2196   -3.0186  -21.2102 F   0  0  0  0  0  0  0  0  0  0  0  0
  -11.1678   -2.2866  -22.0896 C   0  0  0  0  0  0  0  0  0  0  0  0
  -10.4600   -1.4697  -22.9852 C   0  0  0  0  0  0  0  0  0  0  0  0
  -10.6786   -2.9371  -21.3709 H   0  0  0  0  0  0  0  0  0  0  0  0
  -14.3567   -1.3546  -22.8108 H   0  0  0  0  0  0  0  0  0  0  0  0
  -13.0891    0.2444  -24.2885 H   0  0  0  0  0  0  0  0  0  0  0  0
   -7.3840   -0.6318  -24.2699 H   0  0  0  0  0  0  0  0  0  0  0  0
   -8.6412   -1.5169  -25.1718 H   0  0  0  0  0  0  0  0  0  0  0  0
   -6.1369   -2.5497  -22.4303 H   0  0  0  0  0  0  0  0  0  0  0  0
   -6.9593   -3.4379  -21.1372 H   0  0  0  0  0  0  0  0  0  0  0  0
   -9.0125   -3.4799  -22.2874 H   0  0  0  0  0  0  0  0  0  0  0  0
   -7.0782   -3.0918  -24.6326 H   0  0  0  0  0  0  0  0  0  0  0  0
   -8.7065   -3.7618  -24.7746 H   0  0  0  0  0  0  0  0  0  0  0  0
   -7.4726   -4.6187  -23.8402 H   0  0  0  0  0  0  0  0  0  0  0  0
  1  2  1  0
  2  3  1  0
  3  4  1  0
  4  5  1  0
  5  6  2  0
  6  7  1  0
  7  8  2  0
  8  9  1  0
  9 10  2  0
 10 11  1  0
 11 12  2  0
 12 13  1  0
 13 14  2  0
 13 15  1  0
 12 16  1  0
 11 17  1  0
 10 18  1  0
  8 19  1  0
  6 20  1  0
  4 21  1  0
 21 22  2  0
 21 23  1  0
 23 24  1  6
 24 25  1  0
 25 26  1  0
 26 27  1  0
 27 28  1  0
 28 29  2  0
 29 30  1  0
 30 31  1  0
 30 32  1  0
 28 33  1  0
 26 34  1  0
 26 35  1  0
 25 36  1  0
 36 37  2  0
 36 38  1  0
 38 39  2  0
 39 40  1  0
 40 41  2  0
 41 42  1  0
 41 43  1  0
 43 44  2  0
 43 45  1  0
 40 46  1  0
 39 47  1  0
 24 48  1  0
 24 49  1  0
  3 50  1  0
  3 51  1  0
  2 52  1  1
  1 53  1  0
  1 54  1  0
  1 55  1  0
 23  2  1  0
 31 27  2  0
 44 38  1  0
 14  5  1  0
 44 23  1  0
 14  9  1  0
M  END
>  <cnnaffinities>  (4) 
[7.02008, 7.10788, 6.55511, 6.58456, 6.58361, 6.49039, 6.56164]

>  <score>  (4) 
7.02008

>  <index>  (4) 
4

>  <Smiles>  (4) 
C([C@]1(C(N(c2c(nc(c3c(c(c(c(c23)[H])[H])[H])[H])[H])[H])C(=O)[C@]21C(N(C(c1c(nn(n1)[H])[H])([H])[H])C(=O)c1c(c(c(F)c(c21)[H])[H])[H])([H])[H])([H])[H])[H])([H])([H])[H]

>  <h>  (4) 
<NA>

>  <Training>  (4) 
True

>  <Success>  (4) 
True

>  <enamine_searched>  (4) 
False

>  <enamine_id>  (4) 
nan

$$$$

     RDKit          3D

 40 42  0  0  0  0  0  0  0  0999 V2000
   -9.1915    0.2043  -21.0646 O   0  0  0  0  0  0  0  0  0  0  0  0
   -8.3865   -0.3205  -21.8054 C   0  0  0  0  0  0  0  0  0  0  0  0
   -7.4449   -1.4131  -21.2692 C   0  0  0  0  0  0  0  0  0  0  0  0
   -6.5713   -0.8345  -20.1718 C   0  0  0  0  0  0  0  0  0  0  0  0
   -6.8768   -1.0399  -18.8500 C   0  0  0  0  0  0  0  0  0  0  0  0
   -6.1931   -0.5357  -17.7873 N   0  0  0  0  0  0  0  0  0  0  0  0
   -5.1556    0.2219  -18.0603 C   0  0  0  0  0  0  0  0  0  0  0  0
   -4.7215    0.5354  -19.3793 C   0  0  0  0  0  0  0  0  0  0  0  0
   -3.6000    1.3717  -19.6211 C   0  0  0  0  0  0  0  0  0  0  0  0
   -3.2128    1.6644  -20.9024 C   0  0  0  0  0  0  0  0  0  0  0  0
   -3.9310    1.1307  -21.9948 C   0  0  0  0  0  0  0  0  0  0  0  0
   -5.0188    0.3168  -21.7849 C   0  0  0  0  0  0  0  0  0  0  0  0
   -5.4494   -0.0012  -20.4687 C   0  0  0  0  0  0  0  0  0  0  0  0
   -5.5493   -0.0864  -22.6402 H   0  0  0  0  0  0  0  0  0  0  0  0
   -3.6152    1.3685  -23.0076 H   0  0  0  0  0  0  0  0  0  0  0  0
   -2.3580    2.3103  -21.0861 H   0  0  0  0  0  0  0  0  0  0  0  0
   -3.0573    1.7841  -18.7731 H   0  0  0  0  0  0  0  0  0  0  0  0
   -4.5984    0.6298  -17.2160 H   0  0  0  0  0  0  0  0  0  0  0  0
   -7.7311   -1.6616  -18.5866 H   0  0  0  0  0  0  0  0  0  0  0  0
   -6.8277   -1.8508  -22.0638 H   0  0  0  0  0  0  0  0  0  0  0  0
   -8.0658   -2.2112  -20.8447 H   0  0  0  0  0  0  0  0  0  0  0  0
   -8.1868    0.0961  -23.1287 N   0  0  0  0  0  0  0  0  0  0  0  0
   -8.2763   -0.8169  -24.2677 C   0  0  0  0  0  0  0  0  0  0  0  0
   -7.2949   -0.4232  -25.3610 C   0  0  0  0  0  0  0  0  0  0  0  0
   -7.4940    1.0388  -25.7530 C   0  0  0  0  0  0  0  0  0  0  0  0
   -6.5066    1.4559  -26.8312 C   0  0  0  0  0  0  0  0  0  0  0  0
   -6.5990    0.6904  -27.9380 F   0  0  0  0  0  0  0  0  0  0  0  0
   -6.6874    2.7321  -27.2294 F   0  0  0  0  0  0  0  0  0  0  0  0
   -5.2299    1.3628  -26.4041 F   0  0  0  0  0  0  0  0  0  0  0  0
   -7.4027    1.9510  -24.5314 C   0  0  0  0  0  0  0  0  0  0  0  0
   -8.3884    1.5081  -23.4532 C   0  0  0  0  0  0  0  0  0  0  0  0
   -8.2289    2.0940  -22.5466 H   0  0  0  0  0  0  0  0  0  0  0  0
   -9.4169    1.7185  -23.7852 H   0  0  0  0  0  0  0  0  0  0  0  0
   -7.5930    2.9915  -24.8161 H   0  0  0  0  0  0  0  0  0  0  0  0
   -6.3839    1.9217  -24.1254 H   0  0  0  0  0  0  0  0  0  0  0  0
   -8.4802    1.1565  -26.2142 H   0  0  0  0  0  0  0  0  0  0  0  0
   -7.4189   -1.0746  -26.2326 H   0  0  0  0  0  0  0  0  0  0  0  0
   -6.2737   -0.5693  -24.9946 H   0  0  0  0  0  0  0  0  0  0  0  0
   -9.2950   -0.8307  -24.6932 H   0  0  0  0  0  0  0  0  0  0  0  0
   -8.0780   -1.8332  -23.9267 H   0  0  0  0  0  0  0  0  0  0  0  0
  1  2  2  0
  2  3  1  0
  3  4  1  0
  4  5  2  0
  5  6  1  0
  6  7  2  0
  7  8  1  0
  8  9  2  0
  9 10  1  0
 10 11  2  0
 11 12  1  0
 12 13  2  0
 12 14  1  0
 11 15  1  0
 10 16  1  0
  9 17  1  0
  7 18  1  0
  5 19  1  0
  3 20  1  0
  3 21  1  0
  2 22  1  0
 22 23  1  0
 23 24  1  0
 24 25  1  0
 25 26  1  0
 26 27  1  0
 26 28  1  0
 26 29  1  0
 25 30  1  0
 30 31  1  0
 31 32  1  0
 31 33  1  0
 30 34  1  0
 30 35  1  0
 25 36  1  0
 24 37  1  0
 24 38  1  0
 23 39  1  0
 23 40  1  0
 13  4  1  0
 31 22  1  0
 13  8  1  0
M  END
>  <cnnaffinities>  (5) 
[5.06448, 5.06451, 5.06451, 5.06455, 5.0645, 5.06449, 5.06455, 5.06438, 5.06667, 4.82742, 4.82804, 4.97039, 4.97039, 4.9703, 4.97034, 4.97034, 5.07753, 5.07753, 5.07753, 5.07752, 5.07752, 5.07752, 5.07756, 5.30888, 5.30818, 5.30868, 5.37781, 5.37758, 5.23268, 5.23257, 5.23255, 5.23257, 5.23256, 5.23252, 5.23251, 5.23252, 5.23252, 5.23251, 5.2325, 5.23247, 5.19656, 5.13287, 5.13289, 4.83606, 4.8361, 5.09084, 5.09066, 5.0906, 5.09063, 5.09065]

>  <score>  (5) 
5.06448

>  <index>  (5) 
5

>  <Smiles>  (5) 
O=C(C(c1c(nc(c2c(c(c(c(c12)[H])[H])[H])[H])[H])[H])([H])[H])N1C(C(C(C(F)(F)F)(C(C1([H])[H])([H])[H])[H])([H])[H])([H])[H]

>  <h>  (5) 
<NA>

>  <Training>  (5) 
True

>  <Success>  (5) 
True

>  <enamine_searched>  (5) 
False

>  <enamine_id>  (5) 
nan

$$$$

     RDKit          3D

 62 67  0  0  0  0  0  0  0  0999 V2000
  -10.8375    4.6347  -25.3267 C   0  0  0  0  0  0  0  0  0  0  0  0
   -9.3414    4.4176  -25.5551 C   0  0  0  0  0  0  0  0  0  0  0  0
   -8.6730    3.7932  -24.4218 N   0  0  0  0  0  0  0  0  0  0  0  0
   -8.0938    4.5784  -23.5023 N   0  0  0  0  0  0  0  0  0  0  0  0
   -7.6102    3.7516  -22.5838 C   0  0  0  0  0  0  0  0  0  0  0  0
   -7.8886    2.4128  -22.9159 C   0  0  0  0  0  0  0  0  0  0  0  0
   -8.5956    2.4732  -24.0936 C   0  0  0  0  0  0  0  0  0  0  0  0
   -9.1128    1.3362  -24.9297 C   0  0  0  0  0  0  0  0  0  0  0  0
   -9.6567    0.2523  -24.1366 N   0  0  0  0  0  0  0  0  0  0  0  0
   -8.9337   -1.0021  -24.0316 C   0  0  0  0  0  0  0  0  0  0  0  0
   -9.2189   -1.7370  -22.6927 C   0  0  2  0  0  0  0  0  0  0  0  0
   -8.6541   -0.9185  -21.4975 C   0  0  0  0  0  0  0  0  0  0  0  0
   -9.1910    0.0059  -20.9213 O   0  0  0  0  0  0  0  0  0  0  0  0
   -7.3999   -1.4053  -21.1881 N   0  0  0  0  0  0  0  0  0  0  0  0
   -6.6058   -0.8163  -20.1665 C   0  0  0  0  0  0  0  0  0  0  0  0
   -6.9098   -1.0454  -18.8471 C   0  0  0  0  0  0  0  0  0  0  0  0
   -6.2047   -0.5488  -17.8002 N   0  0  0  0  0  0  0  0  0  0  0  0
   -5.1680    0.2076  -18.0749 C   0  0  0  0  0  0  0  0  0  0  0  0
   -4.7349    0.5272  -19.3937 C   0  0  0  0  0  0  0  0  0  0  0  0
   -3.6114    1.3632  -19.6360 C   0  0  0  0  0  0  0  0  0  0  0  0
   -3.2298    1.6625  -20.9156 C   0  0  0  0  0  0  0  0  0  0  0  0
   -3.9529    1.1360  -22.0095 C   0  0  0  0  0  0  0  0  0  0  0  0
   -5.0445    0.3232  -21.7994 C   0  0  0  0  0  0  0  0  0  0  0  0
   -5.4676   -0.0018  -20.4823 C   0  0  0  0  0  0  0  0  0  0  0  0
   -5.5887   -0.0716  -22.6522 H   0  0  0  0  0  0  0  0  0  0  0  0
   -3.6483    1.3818  -23.0217 H   0  0  0  0  0  0  0  0  0  0  0  0
   -2.3786    2.3136  -21.0987 H   0  0  0  0  0  0  0  0  0  0  0  0
   -3.0759    1.7722  -18.7834 H   0  0  0  0  0  0  0  0  0  0  0  0
   -4.6187    0.6156  -17.2264 H   0  0  0  0  0  0  0  0  0  0  0  0
   -7.7573   -1.6747  -18.5874 H   0  0  0  0  0  0  0  0  0  0  0  0
   -7.0258   -2.5854  -21.9479 C   0  0  0  0  0  0  0  0  0  0  0  0
   -8.3629   -3.0391  -22.5806 C   0  0  2  0  0  0  0  0  0  0  0  0
   -8.1688   -3.8558  -23.8635 C   0  0  0  0  0  0  0  0  0  0  0  0
   -7.5696   -3.3026  -24.5998 H   0  0  0  0  0  0  0  0  0  0  0  0
   -7.6437   -4.7996  -23.6615 H   0  0  0  0  0  0  0  0  0  0  0  0
   -9.1266   -4.1021  -24.3391 H   0  0  0  0  0  0  0  0  0  0  0  0
   -8.8625   -3.6666  -21.8353 H   0  0  0  0  0  0  0  0  0  0  0  0
   -6.5891   -3.3427  -21.2860 H   0  0  0  0  0  0  0  0  0  0  0  0
   -6.2714   -2.3610  -22.7203 H   0  0  0  0  0  0  0  0  0  0  0  0
  -10.7331   -1.8725  -22.5769 C   0  0  0  0  0  0  0  0  0  0  0  0
  -11.3602   -2.9358  -21.9064 C   0  0  0  0  0  0  0  0  0  0  0  0
  -12.7298   -2.8822  -21.7325 C   0  0  0  0  0  0  0  0  0  0  0  0
  -13.3981   -3.7891  -21.0121 F   0  0  0  0  0  0  0  0  0  0  0  0
  -13.5147   -1.8572  -22.2335 C   0  0  0  0  0  0  0  0  0  0  0  0
  -12.9190   -0.7983  -22.8725 C   0  0  0  0  0  0  0  0  0  0  0  0
  -11.5338   -0.8095  -23.0373 C   0  0  0  0  0  0  0  0  0  0  0  0
  -10.9476    0.3753  -23.7248 C   0  0  0  0  0  0  0  0  0  0  0  0
  -11.6065    1.3907  -23.9287 O   0  0  0  0  0  0  0  0  0  0  0  0
  -13.4956    0.0554  -23.2242 H   0  0  0  0  0  0  0  0  0  0  0  0
  -14.5727   -1.9521  -22.0513 H   0  0  0  0  0  0  0  0  0  0  0  0
  -10.7996   -3.7655  -21.4932 H   0  0  0  0  0  0  0  0  0  0  0  0
   -9.2092   -1.6750  -24.8619 H   0  0  0  0  0  0  0  0  0  0  0  0
   -7.8663   -0.7678  -24.1015 H   0  0  0  0  0  0  0  0  0  0  0  0
   -9.8840    1.6778  -25.6299 H   0  0  0  0  0  0  0  0  0  0  0  0
   -8.2944    0.8973  -25.5067 H   0  0  0  0  0  0  0  0  0  0  0  0
   -7.6416    1.5019  -22.3896 H   0  0  0  0  0  0  0  0  0  0  0  0
   -7.0867    4.1634  -21.7279 H   0  0  0  0  0  0  0  0  0  0  0  0
   -8.8205    5.3689  -25.7164 H   0  0  0  0  0  0  0  0  0  0  0  0
   -9.1617    3.7852  -26.4305 H   0  0  0  0  0  0  0  0  0  0  0  0
  -11.3571    3.6820  -25.1572 H   0  0  0  0  0  0  0  0  0  0  0  0
  -11.0026    5.2861  -24.4611 H   0  0  0  0  0  0  0  0  0  0  0  0
  -11.2761    5.1216  -26.2050 H   0  0  0  0  0  0  0  0  0  0  0  0
  1  2  1  0
  2  3  1  0
  3  4  1  0
  4  5  2  0
  5  6  1  0
  6  7  2  0
  7  8  1  0
  8  9  1  0
  9 10  1  0
 11 10  1  6
 11 12  1  0
 12 13  2  0
 12 14  1  0
 14 15  1  0
 15 16  2  0
 16 17  1  0
 17 18  2  0
 18 19  1  0
 19 20  2  0
 20 21  1  0
 21 22  2  0
 22 23  1  0
 23 24  2  0
 23 25  1  0
 22 26  1  0
 21 27  1  0
 20 28  1  0
 18 29  1  0
 16 30  1  0
 14 31  1  0
 31 32  1  0
 32 33  1  0
 33 34  1  0
 33 35  1  0
 33 36  1  0
 32 37  1  1
 31 38  1  0
 31 39  1  0
 11 40  1  0
 40 41  2  0
 41 42  1  0
 42 43  1  0
 42 44  2  0
 44 45  1  0
 45 46  2  0
 46 47  1  0
 47 48  2  0
 45 49  1  0
 44 50  1  0
 41 51  1  0
 10 52  1  0
 10 53  1  0
  8 54  1  0
  8 55  1  0
  6 56  1  0
  5 57  1  0
  2 58  1  0
  2 59  1  0
  1 60  1  0
  1 61  1  0
  1 62  1  0
  7  3  1  0
 47  9  1  0
 32 11  1  0
 46 40  1  0
 24 15  1  0
 24 19  1  0
M  END
>  <cnnaffinities>  (6) 
[7.14207, 6.86118, 6.72483]

>  <score>  (6) 
7.14207

>  <index>  (6) 
7

>  <Smiles>  (6) 
C(C(n1nc(c(c1C(N1C([C@@]2(C(=O)N(c3c(nc(c4c(c(c(c(c34)[H])[H])[H])[H])[H])[H])C([C@@]2(C([H])([H])[H])[H])([H])[H])c2c(c(F)c(c(c2C1=O)[H])[H])[H])([H])[H])([H])[H])[H])[H])([H])[H])([H])([H])[H]

>  <h>  (6) 
<NA>

>  <Training>  (6) 
True

>  <Success>  (6) 
True

>  <enamine_searched>  (6) 
False

>  <enamine_id>  (6) 
nan

$$$$

     RDKit          3D

 65 70  0  0  0  0  0  0  0  0999 V2000
   -7.9836    0.8543  -21.6132 O   0  0  0  0  0  0  0  0  0  0  0  0
   -8.0194   -0.3050  -21.9764 C   0  0  0  0  0  0  0  0  0  0  0  0
   -7.4327   -1.4416  -21.1361 C   0  0  0  0  0  0  0  0  0  0  0  0
   -6.5774   -0.8888  -20.0574 C   0  0  0  0  0  0  0  0  0  0  0  0
   -6.9089   -1.0689  -18.7425 C   0  0  0  0  0  0  0  0  0  0  0  0
   -6.2437   -0.5367  -17.6903 N   0  0  0  0  0  0  0  0  0  0  0  0
   -5.2025    0.2167  -17.9808 C   0  0  0  0  0  0  0  0  0  0  0  0
   -4.7525    0.4887  -19.3039 C   0  0  0  0  0  0  0  0  0  0  0  0
   -3.6500    1.3386  -19.5644 C   0  0  0  0  0  0  0  0  0  0  0  0
   -3.2622    1.6154  -20.8478 C   0  0  0  0  0  0  0  0  0  0  0  0
   -3.9637    1.0513  -21.9349 C   0  0  0  0  0  0  0  0  0  0  0  0
   -5.0330    0.2221  -21.7097 C   0  0  0  0  0  0  0  0  0  0  0  0
   -5.4581   -0.0752  -20.3824 C   0  0  0  0  0  0  0  0  0  0  0  0
   -5.5719   -0.1779  -22.5623 H   0  0  0  0  0  0  0  0  0  0  0  0
   -3.6680    1.2889  -22.9534 H   0  0  0  0  0  0  0  0  0  0  0  0
   -2.4197    2.2750  -21.0386 H   0  0  0  0  0  0  0  0  0  0  0  0
   -3.1305    1.7735  -18.7151 H   0  0  0  0  0  0  0  0  0  0  0  0
   -4.6646    0.6564  -17.1444 H   0  0  0  0  0  0  0  0  0  0  0  0
   -7.7760   -1.6778  -18.4822 H   0  0  0  0  0  0  0  0  0  0  0  0
   -6.8716   -2.1074  -21.8012 H   0  0  0  0  0  0  0  0  0  0  0  0
   -8.2431   -2.0234  -20.6934 H   0  0  0  0  0  0  0  0  0  0  0  0
   -8.5263   -0.6796  -23.2005 N   0  0  0  0  0  0  0  0  0  0  0  0
   -8.5687    0.3608  -24.2262 C   0  0  0  0  0  0  0  0  0  0  0  0
   -7.8600   -0.0722  -25.4850 C   0  0  0  0  0  0  0  0  0  0  0  0
   -6.6890   -0.8246  -25.4512 C   0  0  0  0  0  0  0  0  0  0  0  0
   -6.0985   -1.2526  -26.6334 C   0  0  0  0  0  0  0  0  0  0  0  0
   -6.6525   -0.9244  -27.8637 C   0  0  0  0  0  0  0  0  0  0  0  0
   -7.8157   -0.1713  -27.8890 C   0  0  0  0  0  0  0  0  0  0  0  0
   -8.4931    0.2796  -29.4243 Cl  0  0  0  0  0  0  0  0  0  0  0  0
   -8.4329    0.2325  -26.7113 C   0  0  0  0  0  0  0  0  0  0  0  0
   -9.3939    0.7279  -26.7213 H   0  0  0  0  0  0  0  0  0  0  0  0
   -6.1896   -1.2396  -28.7927 H   0  0  0  0  0  0  0  0  0  0  0  0
   -5.2022   -1.8605  -26.5895 H   0  0  0  0  0  0  0  0  0  0  0  0
   -6.2377   -1.0980  -24.4999 H   0  0  0  0  0  0  0  0  0  0  0  0
   -9.6031    0.6344  -24.4706 H   0  0  0  0  0  0  0  0  0  0  0  0
   -8.1187    1.2526  -23.7829 H   0  0  0  0  0  0  0  0  0  0  0  0
   -9.3121   -1.8994  -23.3705 C   0  0  2  0  0  0  0  0  0  0  0  0
   -8.5936   -3.2746  -23.4930 C   0  0  0  0  0  0  0  0  0  0  0  0
   -9.6596   -4.1772  -24.1767 C   0  0  0  0  0  0  0  0  0  0  0  0
  -10.8634   -3.2528  -24.2742 C   0  0  2  0  0  0  0  0  0  0  0  0
  -10.2136   -1.9328  -24.6180 C   0  0  0  0  0  0  0  0  0  0  0  0
   -9.6391   -1.9916  -25.5466 H   0  0  0  0  0  0  0  0  0  0  0  0
  -10.9158   -1.0919  -24.6463 H   0  0  0  0  0  0  0  0  0  0  0  0
  -11.3478   -3.0463  -22.8266 N   0  0  2  0  0  4  0  0  0  0  0  0
  -12.7445   -2.6238  -22.5704 C   0  0  0  0  0  0  0  0  0  0  0  0
  -13.2757   -1.5804  -23.5345 C   0  0  0  0  0  0  0  0  0  0  0  0
  -14.7784   -1.4404  -23.4242 C   0  0  0  0  0  0  0  0  0  0  0  0
  -14.6625   -0.2483  -22.6310 O   0  0  0  0  0  0  0  0  0  0  0  0
  -13.3051   -0.1110  -23.0892 C   0  0  0  0  0  0  0  0  0  0  0  0
  -12.6214    0.2139  -22.2967 H   0  0  0  0  0  0  0  0  0  0  0  0
  -13.2641    0.5862  -23.9423 H   0  0  0  0  0  0  0  0  0  0  0  0
  -15.2127   -1.2504  -24.4111 H   0  0  0  0  0  0  0  0  0  0  0  0
  -15.3183   -2.2530  -22.9321 H   0  0  0  0  0  0  0  0  0  0  0  0
  -12.9115   -1.7620  -24.5390 H   0  0  0  0  0  0  0  0  0  0  0  0
  -12.8536   -2.2566  -21.5424 H   0  0  0  0  0  0  0  0  0  0  0  0
  -13.3809   -3.5115  -22.6188 H   0  0  0  0  0  0  0  0  0  0  0  0
  -10.3573   -2.0779  -22.2544 C   0  0  0  0  0  0  0  0  0  0  0  0
   -9.9638   -2.4745  -21.3174 H   0  0  0  0  0  0  0  0  0  0  0  0
  -10.8486   -1.1264  -22.0489 H   0  0  0  0  0  0  0  0  0  0  0  0
  -11.2305   -3.9514  -22.3459 H   0  0  0  0  0  0  0  0  0  0  0  0
  -11.6605   -3.5984  -24.9254 H   0  0  0  0  0  0  0  0  0  0  0  0
   -9.3415   -4.4794  -25.1777 H   0  0  0  0  0  0  0  0  0  0  0  0
   -9.9016   -5.0837  -23.6134 H   0  0  0  0  0  0  0  0  0  0  0  0
   -7.6881   -3.1863  -24.1043 H   0  0  0  0  0  0  0  0  0  0  0  0
   -8.2995   -3.6847  -22.5227 H   0  0  0  0  0  0  0  0  0  0  0  0
  1  2  2  0
  2  3  1  0
  3  4  1  0
  4  5  2  0
  5  6  1  0
  6  7  2  0
  7  8  1  0
  8  9  2  0
  9 10  1  0
 10 11  2  0
 11 12  1  0
 12 13  2  0
 12 14  1  0
 11 15  1  0
 10 16  1  0
  9 17  1  0
  7 18  1  0
  5 19  1  0
  3 20  1  0
  3 21  1  0
  2 22  1  0
 22 23  1  0
 23 24  1  0
 24 25  2  0
 25 26  1  0
 26 27  2  0
 27 28  1  0
 28 29  1  0
 28 30  2  0
 30 31  1  0
 27 32  1  0
 26 33  1  0
 25 34  1  0
 23 35  1  0
 23 36  1  0
 37 22  1  1
 37 38  1  0
 38 39  1  0
 39 40  1  0
 40 41  1  0
 41 42  1  0
 41 43  1  0
 40 44  1  0
 44 45  1  0
 45 46  1  0
 46 47  1  0
 47 48  1  0
 48 49  1  0
 49 50  1  0
 49 51  1  0
 47 52  1  0
 47 53  1  0
 46 54  1  0
 45 55  1  0
 45 56  1  0
 44 57  1  0
 57 58  1  0
 57 59  1  0
 44 60  1  1
 40 61  1  6
 39 62  1  0
 39 63  1  0
 38 64  1  0
 38 65  1  0
 13  4  1  0
 30 24  1  0
 41 37  1  0
 49 46  1  0
 13  8  1  0
 57 37  1  0
M  CHG  1  44   1
M  END
>  <cnnaffinities>  (7) 
[6.05603, 5.97339, 6.02527, 6.0841]

>  <score>  (7) 
6.05603

>  <index>  (7) 
8

>  <Smiles>  (7) 
O=C(C(c1c(nc(c2c(c(c(c(c12)[H])[H])[H])[H])[H])[H])([H])[H])N(C(c1c(c(c(c(Cl)c1[H])[H])[H])[H])([H])[H])[C@]12C(C([C@](C1([H])[H])([N@+](C(C1(C(OC1([H])[H])([H])[H])[H])([H])[H])(C2([H])[H])[H])[H])([H])[H])([H])[H]

>  <h>  (7) 
<NA>

>  <Training>  (7) 
True

>  <Success>  (7) 
True

>  <enamine_searched>  (7) 
False

>  <enamine_id>  (7) 
nan

$$$$

     RDKit          3D

 62 67  0  0  0  0  0  0  0  0999 V2000
  -10.8375    4.6347  -25.3267 C   0  0  0  0  0  0  0  0  0  0  0  0
   -9.3414    4.4176  -25.5551 C   0  0  0  0  0  0  0  0  0  0  0  0
   -8.6730    3.7932  -24.4218 N   0  0  0  0  0  0  0  0  0  0  0  0
   -8.0938    4.5784  -23.5023 N   0  0  0  0  0  0  0  0  0  0  0  0
   -7.6102    3.7516  -22.5838 C   0  0  0  0  0  0  0  0  0  0  0  0
   -7.8886    2.4128  -22.9159 C   0  0  0  0  0  0  0  0  0  0  0  0
   -8.5956    2.4732  -24.0936 C   0  0  0  0  0  0  0  0  0  0  0  0
   -9.1128    1.3362  -24.9297 C   0  0  0  0  0  0  0  0  0  0  0  0
   -9.6567    0.2523  -24.1366 N   0  0  0  0  0  0  0  0  0  0  0  0
   -8.9337   -1.0021  -24.0316 C   0  0  0  0  0  0  0  0  0  0  0  0
   -9.2189   -1.7370  -22.6927 C   0  0  2  0  0  0  0  0  0  0  0  0
   -8.6541   -0.9185  -21.4975 C   0  0  0  0  0  0  0  0  0  0  0  0
   -9.1910    0.0059  -20.9213 O   0  0  0  0  0  0  0  0  0  0  0  0
   -7.3999   -1.4053  -21.1881 N   0  0  0  0  0  0  0  0  0  0  0  0
   -6.6058   -0.8163  -20.1665 C   0  0  0  0  0  0  0  0  0  0  0  0
   -6.9098   -1.0454  -18.8471 C   0  0  0  0  0  0  0  0  0  0  0  0
   -6.2047   -0.5488  -17.8002 N   0  0  0  0  0  0  0  0  0  0  0  0
   -5.1680    0.2076  -18.0749 C   0  0  0  0  0  0  0  0  0  0  0  0
   -4.7349    0.5272  -19.3937 C   0  0  0  0  0  0  0  0  0  0  0  0
   -3.6114    1.3632  -19.6360 C   0  0  0  0  0  0  0  0  0  0  0  0
   -3.2298    1.6625  -20.9156 C   0  0  0  0  0  0  0  0  0  0  0  0
   -3.9529    1.1360  -22.0095 C   0  0  0  0  0  0  0  0  0  0  0  0
   -5.0445    0.3232  -21.7994 C   0  0  0  0  0  0  0  0  0  0  0  0
   -5.4676   -0.0018  -20.4823 C   0  0  0  0  0  0  0  0  0  0  0  0
   -5.5887   -0.0716  -22.6522 H   0  0  0  0  0  0  0  0  0  0  0  0
   -3.6483    1.3818  -23.0217 H   0  0  0  0  0  0  0  0  0  0  0  0
   -2.3786    2.3136  -21.0987 H   0  0  0  0  0  0  0  0  0  0  0  0
   -3.0759    1.7722  -18.7834 H   0  0  0  0  0  0  0  0  0  0  0  0
   -4.6187    0.6156  -17.2264 H   0  0  0  0  0  0  0  0  0  0  0  0
   -7.7573   -1.6747  -18.5874 H   0  0  0  0  0  0  0  0  0  0  0  0
   -7.0258   -2.5854  -21.9479 C   0  0  0  0  0  0  0  0  0  0  0  0
   -8.3629   -3.0391  -22.5806 C   0  0  2  0  0  0  0  0  0  0  0  0
   -8.1688   -3.8558  -23.8635 C   0  0  0  0  0  0  0  0  0  0  0  0
   -7.5696   -3.3026  -24.5998 H   0  0  0  0  0  0  0  0  0  0  0  0
   -7.6437   -4.7996  -23.6615 H   0  0  0  0  0  0  0  0  0  0  0  0
   -9.1266   -4.1021  -24.3391 H   0  0  0  0  0  0  0  0  0  0  0  0
   -8.8625   -3.6666  -21.8353 H   0  0  0  0  0  0  0  0  0  0  0  0
   -6.5891   -3.3427  -21.2860 H   0  0  0  0  0  0  0  0  0  0  0  0
   -6.2714   -2.3610  -22.7203 H   0  0  0  0  0  0  0  0  0  0  0  0
  -10.7331   -1.8725  -22.5769 C   0  0  0  0  0  0  0  0  0  0  0  0
  -11.3602   -2.9358  -21.9064 C   0  0  0  0  0  0  0  0  0  0  0  0
  -12.7298   -2.8822  -21.7325 C   0  0  0  0  0  0  0  0  0  0  0  0
  -13.3981   -3.7891  -21.0121 F   0  0  0  0  0  0  0  0  0  0  0  0
  -13.5147   -1.8572  -22.2335 C   0  0  0  0  0  0  0  0  0  0  0  0
  -12.9190   -0.7983  -22.8725 C   0  0  0  0  0  0  0  0  0  0  0  0
  -11.5338   -0.8095  -23.0373 C   0  0  0  0  0  0  0  0  0  0  0  0
  -10.9476    0.3753  -23.7248 C   0  0  0  0  0  0  0  0  0  0  0  0
  -11.6065    1.3907  -23.9287 O   0  0  0  0  0  0  0  0  0  0  0  0
  -13.4956    0.0554  -23.2242 H   0  0  0  0  0  0  0  0  0  0  0  0
  -14.5727   -1.9521  -22.0513 H   0  0  0  0  0  0  0  0  0  0  0  0
  -10.7996   -3.7655  -21.4932 H   0  0  0  0  0  0  0  0  0  0  0  0
   -9.2092   -1.6750  -24.8619 H   0  0  0  0  0  0  0  0  0  0  0  0
   -7.8663   -0.7678  -24.1015 H   0  0  0  0  0  0  0  0  0  0  0  0
   -9.8840    1.6778  -25.6299 H   0  0  0  0  0  0  0  0  0  0  0  0
   -8.2944    0.8973  -25.5067 H   0  0  0  0  0  0  0  0  0  0  0  0
   -7.6416    1.5019  -22.3896 H   0  0  0  0  0  0  0  0  0  0  0  0
   -7.0867    4.1634  -21.7279 H   0  0  0  0  0  0  0  0  0  0  0  0
   -8.8205    5.3689  -25.7164 H   0  0  0  0  0  0  0  0  0  0  0  0
   -9.1617    3.7852  -26.4305 H   0  0  0  0  0  0  0  0  0  0  0  0
  -11.3571    3.6820  -25.1572 H   0  0  0  0  0  0  0  0  0  0  0  0
  -11.0026    5.2861  -24.4611 H   0  0  0  0  0  0  0  0  0  0  0  0
  -11.2761    5.1216  -26.2050 H   0  0  0  0  0  0  0  0  0  0  0  0
  1  2  1  0
  2  3  1  0
  3  4  1  0
  4  5  2  0
  5  6  1  0
  6  7  2  0
  7  8  1  0
  8  9  1  0
  9 10  1  0
 11 10  1  6
 11 12  1  0
 12 13  2  0
 12 14  1  0
 14 15  1  0
 15 16  2  0
 16 17  1  0
 17 18  2  0
 18 19  1  0
 19 20  2  0
 20 21  1  0
 21 22  2  0
 22 23  1  0
 23 24  2  0
 23 25  1  0
 22 26  1  0
 21 27  1  0
 20 28  1  0
 18 29  1  0
 16 30  1  0
 14 31  1  0
 31 32  1  0
 32 33  1  0
 33 34  1  0
 33 35  1  0
 33 36  1  0
 32 37  1  1
 31 38  1  0
 31 39  1  0
 11 40  1  0
 40 41  2  0
 41 42  1  0
 42 43  1  0
 42 44  2  0
 44 45  1  0
 45 46  2  0
 46 47  1  0
 47 48  2  0
 45 49  1  0
 44 50  1  0
 41 51  1  0
 10 52  1  0
 10 53  1  0
  8 54  1  0
  8 55  1  0
  6 56  1  0
  5 57  1  0
  2 58  1  0
  2 59  1  0
  1 60  1  0
  1 61  1  0
  1 62  1  0
  7  3  1  0
 47  9  1  0
 32 11  1  0
 46 40  1  0
 24 15  1  0
 24 19  1  0
M  END
>  <cnnaffinities>  (8) 
[7.14207, 6.86117, 6.72479]

>  <score>  (8) 
7.14207

>  <index>  (8) 
9

>  <Smiles>  (8) 
C(C(n1nc(c(c1C(N1C([C@@]2(C(=O)N(c3c(nc(c4c(c(c(c(c34)[H])[H])[H])[H])[H])[H])C([C@@]2(C([H])([H])[H])[H])([H])[H])c2c(c(F)c(c(c2C1=O)[H])[H])[H])([H])[H])([H])[H])[H])[H])([H])[H])([H])([H])[H]

>  <h>  (8) 
<NA>

>  <Training>  (8) 
True

>  <Success>  (8) 
True

>  <enamine_searched>  (8) 
False

>  <enamine_id>  (8) 
nan

$$$$
