new-core.pdb
 OpenBabel03042510333D

 11 11  0  0  0  0  0  0  0  0999 V2000
   -6.5680   -0.8210  -20.1730 C   0  0  0  0  0  0  0  0  0  0  0  0
   -5.4400    0.0010  -20.4700 C   0  0  0  0  0  0  0  0  0  0  0  0
   -4.7100    0.5480  -19.3760 C   0  0  0  0  0  0  0  0  0  0  0  0
   -5.1450    0.2240  -18.0610 C   0  0  0  0  0  0  0  0  0  0  0  0
   -6.1960   -0.5400  -17.7900 N   0  0  0  0  0  0  0  0  0  0  0  0
   -6.8760   -1.0460  -18.8310 C   0  0  0  0  0  0  0  0  0  0  0  0
   -7.1378   -1.2358  -20.9269 H   0  0  0  0  0  0  0  0  0  0  0  0
   -5.1623    0.1928  -21.4452 H   0  0  0  0  0  0  0  0  0  0  0  0
   -3.8930    1.1588  -19.5322 H   0  0  0  0  0  0  0  0  0  0  0  0
   -4.6091    0.6075  -17.2668 H   0  0  0  0  0  0  0  0  0  0  0  0
   -7.6885   -1.6472  -18.6227 H   0  0  0  0  0  0  0  0  0  0  0  0
  1  6  1  0  0  0  0
  1  7  1  0  0  0  0
  2  1  2  0  0  0  0
  2  3  1  0  0  0  0
  2  8  1  0  0  0  0
  3  4  2  0  0  0  0
  3  9  1  0  0  0  0
  4  5  1  0  0  0  0
  4 10  1  0  0  0  0
  6  5  2  0  0  0  0
  6 11  1  0  0  0  0
M  END
$$$$
