
     RDKit          3D

 66 70  0  0  0  0  0  0  0  0999 V2000
    3.0226   -3.3736    2.7412 C   0  0  0  0  0  0  0  0  0  0  0  0
    3.7470   -2.4758    1.7664 C   0  0  0  0  0  0  0  0  0  0  0  0
    2.8166   -1.8174    0.8123 C   0  0  0  0  0  0  0  0  0  0  0  0
    1.6115   -2.1128    0.9261 O   0  0  0  0  0  0  0  0  0  0  0  0
    3.3830   -0.9199   -0.1305 N   0  0  0  0  0  0  0  0  0  0  0  0
    4.8042   -0.6831   -0.2409 C   0  0  0  0  0  0  0  0  0  0  0  0
    5.2429   -0.2392   -1.5734 C   0  0  0  0  0  0  0  0  0  0  0  0
    4.3015   -0.4999   -2.7105 C   0  0  0  0  0  0  0  0  0  0  0  0
    2.9379    0.0027   -2.3420 C   0  0  0  0  0  0  0  0  0  0  0  0
    2.0973    0.6722   -3.1757 C   0  0  0  0  0  0  0  0  0  0  0  0
    0.8579    1.1100   -2.7051 C   0  0  0  0  0  0  0  0  0  0  0  0
    0.4316    0.8919   -1.4020 C   0  0  0  0  0  0  0  0  0  0  0  0
   -0.8368    1.3779   -0.9454 N   0  0  0  0  0  0  0  0  0  0  0  0
   -2.0114    0.5919   -0.9090 C   0  0  0  0  0  0  0  0  0  0  0  0
   -3.0842    1.0572   -0.4543 O   0  0  0  0  0  0  0  0  0  0  0  0
   -1.9715   -0.7953   -1.4172 C   0  0  0  0  0  0  0  0  0  0  0  0
   -3.3044   -1.4514   -1.3057 C   0  0  0  0  0  0  0  0  0  0  0  0
   -4.1518   -1.6332   -2.3968 C   0  0  0  0  0  0  0  0  0  0  0  0
   -5.3462   -2.2278   -2.2333 N   0  0  0  0  0  0  0  0  0  0  0  0
   -5.7968   -2.6743   -1.0516 C   0  0  0  0  0  0  0  0  0  0  0  0
   -4.9639   -2.5005    0.0447 C   0  0  0  0  0  0  0  0  0  0  0  0
   -5.3848   -2.9452    1.2774 C   0  0  0  0  0  0  0  0  0  0  0  0
   -4.5882   -2.7934    2.3865 C   0  0  0  0  0  0  0  0  0  0  0  0
   -3.3440   -2.1898    2.2897 C   0  0  0  0  0  0  0  0  0  0  0  0
   -2.9461   -1.7506    1.0309 C   0  0  0  0  0  0  0  0  0  0  0  0
   -3.7297   -1.8946   -0.0866 C   0  0  0  0  0  0  0  0  0  0  0  0
   -0.9732    2.7215   -0.5335 N   0  0  0  0  0  0  0  0  0  0  0  0
   -1.4923    3.6123   -1.5833 C   0  0  0  0  0  0  0  0  0  0  0  0
   -0.6491    3.2255    0.7231 C   0  0  0  0  0  0  0  0  0  0  0  0
   -0.2776    2.4883    1.8141 C   0  0  0  0  0  0  0  0  0  0  0  0
    0.0623    3.0762    3.0313 C   0  0  0  0  0  0  0  0  0  0  0  0
    0.0323    4.4461    3.1706 C   0  0  0  0  0  0  0  0  0  0  0  0
   -0.3419    5.2213    2.0815 C   0  0  0  0  0  0  0  0  0  0  0  0
   -0.3754    6.9592    2.2746 Cl  0  0  0  0  0  0  0  0  0  0  0  0
   -0.6715    4.6105    0.8932 C   0  0  0  0  0  0  0  0  0  0  0  0
    1.2927    0.2102   -0.5661 C   0  0  0  0  0  0  0  0  0  0  0  0
    2.5152   -0.2236   -1.0225 C   0  0  0  0  0  0  0  0  0  0  0  0
    3.3593   -3.1222    3.7685 H   0  0  0  0  0  0  0  0  0  0  0  0
    1.9126   -3.2752    2.6214 H   0  0  0  0  0  0  0  0  0  0  0  0
    3.2540   -4.4461    2.5838 H   0  0  0  0  0  0  0  0  0  0  0  0
    4.3942   -3.1420    1.1548 H   0  0  0  0  0  0  0  0  0  0  0  0
    4.4206   -1.7742    2.2661 H   0  0  0  0  0  0  0  0  0  0  0  0
    5.2832   -1.6706   -0.0125 H   0  0  0  0  0  0  0  0  0  0  0  0
    5.1117    0.0666    0.5230 H   0  0  0  0  0  0  0  0  0  0  0  0
    5.5717    0.8449   -1.5561 H   0  0  0  0  0  0  0  0  0  0  0  0
    6.2050   -0.7725   -1.8467 H   0  0  0  0  0  0  0  0  0  0  0  0
    4.6877    0.1227   -3.5760 H   0  0  0  0  0  0  0  0  0  0  0  0
    4.3181   -1.5340   -3.0432 H   0  0  0  0  0  0  0  0  0  0  0  0
    2.4252    0.8443   -4.1913 H   0  0  0  0  0  0  0  0  0  0  0  0
    0.1884    1.6384   -3.3566 H   0  0  0  0  0  0  0  0  0  0  0  0
   -1.1851   -1.3555   -0.8773 H   0  0  0  0  0  0  0  0  0  0  0  0
   -1.7213   -0.8104   -2.5047 H   0  0  0  0  0  0  0  0  0  0  0  0
   -3.8391   -1.2944   -3.3630 H   0  0  0  0  0  0  0  0  0  0  0  0
   -6.7446   -3.1538   -0.8833 H   0  0  0  0  0  0  0  0  0  0  0  0
   -6.3578   -3.4254    1.3883 H   0  0  0  0  0  0  0  0  0  0  0  0
   -4.9148   -3.1413    3.3570 H   0  0  0  0  0  0  0  0  0  0  0  0
   -2.7142   -2.0658    3.1535 H   0  0  0  0  0  0  0  0  0  0  0  0
   -1.9583   -1.2827    1.0103 H   0  0  0  0  0  0  0  0  0  0  0  0
   -2.0121    3.0420   -2.3556 H   0  0  0  0  0  0  0  0  0  0  0  0
   -0.7506    4.3384   -1.9267 H   0  0  0  0  0  0  0  0  0  0  0  0
   -2.2927    4.2337   -1.0770 H   0  0  0  0  0  0  0  0  0  0  0  0
   -0.2564    1.4288    1.7420 H   0  0  0  0  0  0  0  0  0  0  0  0
    0.3510    2.4783    3.8664 H   0  0  0  0  0  0  0  0  0  0  0  0
    0.2992    4.8877    4.1179 H   0  0  0  0  0  0  0  0  0  0  0  0
   -0.9579    5.2623    0.0680 H   0  0  0  0  0  0  0  0  0  0  0  0
    1.0074    0.0041    0.4706 H   0  0  0  0  0  0  0  0  0  0  0  0
  1  2  1  0
  2  3  1  0
  3  4  2  0
  3  5  1  0
  5  6  1  0
  6  7  1  0
  7  8  1  0
  8  9  1  0
  9 10  2  0
 10 11  1  0
 11 12  2  0
 12 13  1  0
 13 14  1  0
 14 15  2  0
 14 16  1  0
 16 17  1  0
 17 18  2  0
 18 19  1  0
 19 20  2  0
 20 21  1  0
 21 22  2  0
 22 23  1  0
 23 24  2  0
 24 25  1  0
 25 26  2  0
 13 27  1  0
 27 28  1  0
 27 29  1  0
 29 30  2  0
 30 31  1  0
 31 32  2  0
 32 33  1  0
 33 34  1  0
 33 35  2  0
 12 36  1  0
 36 37  2  0
 37  5  1  0
 37  9  1  0
 26 17  1  0
 35 29  1  0
 26 21  1  0
  1 38  1  0
  1 39  1  0
  1 40  1  0
  2 41  1  0
  2 42  1  0
  6 43  1  0
  6 44  1  0
  7 45  1  0
  7 46  1  0
  8 47  1  0
  8 48  1  0
 10 49  1  0
 11 50  1  0
 16 51  1  0
 16 52  1  0
 18 53  1  0
 20 54  1  0
 22 55  1  0
 23 56  1  0
 24 57  1  0
 25 58  1  0
 28 59  1  0
 28 60  1  0
 28 61  1  0
 30 62  1  0
 31 63  1  0
 32 64  1  0
 35 65  1  0
 36 66  1  0
M  END
$$$$
