
     RDKit          3D

 69 70  0  0  0  0  0  0  0  0999 V2000
   -5.2146    2.0343    5.6490 C   0  0  0  0  0  0  0  0  0  0  0  0
   -4.3801    2.1701    4.5178 O   0  0  0  0  0  0  0  0  0  0  0  0
   -4.3276    1.2530    3.4784 C   0  0  0  0  0  0  0  0  0  0  0  0
   -5.0934    0.2484    3.6109 O   0  0  0  0  0  0  0  0  0  0  0  0
   -3.5034    1.3913    2.3586 N   0  0  0  0  0  0  0  0  0  0  0  0
   -3.3848    0.4990    1.2168 C   0  0  2  0  0  0  0  0  0  0  0  0
   -1.9837    0.1977    0.8366 C   0  0  0  0  0  0  0  0  0  0  0  0
   -1.2155    1.2026    1.0639 O   0  0  0  0  0  0  0  0  0  0  0  0
   -1.4773   -0.9738    0.3062 N   0  0  0  0  0  0  0  0  0  0  0  0
   -2.2605   -2.2001    0.0731 C   0  0  0  0  0  0  0  0  0  0  0  0
   -1.9237   -2.5295   -1.3226 C   0  0  2  0  0  0  0  0  0  0  0  0
   -1.7244   -4.0062   -1.6148 C   0  0  0  0  0  0  0  0  0  0  0  0
   -2.8738   -4.6732   -1.3206 F   0  0  0  0  0  0  0  0  0  0  0  0
   -0.6254   -4.4226   -0.8960 F   0  0  0  0  0  0  0  0  0  0  0  0
   -1.3962   -4.0519   -2.9672 F   0  0  0  0  0  0  0  0  0  0  0  0
   -0.6283   -1.7680   -1.6067 C   0  0  0  0  0  0  0  0  0  0  0  0
   -0.2080   -1.3915   -0.1786 C   0  0  1  0  0  0  0  0  0  0  0  0
    0.9313   -0.5358   -0.1111 C   0  0  0  0  0  0  0  0  0  0  0  0
    1.0303    0.4698    0.5911 O   0  0  0  0  0  0  0  0  0  0  0  0
    2.1024   -0.8237   -0.9040 N   0  0  0  0  0  0  0  0  0  0  0  0
    3.2635    0.0807   -0.8072 C   0  0  2  0  0  0  0  0  0  0  0  0
    3.1432    1.1565   -1.8711 C   0  0  0  0  0  0  0  0  0  0  0  0
    3.0992    0.6586   -3.2156 N   0  0  0  0  0  4  0  0  0  0  0  0
    4.5269   -0.6876   -0.8549 C   0  0  0  0  0  0  0  0  0  0  0  0
    5.7485    0.1984   -0.7473 C   0  0  2  0  0  0  0  0  0  0  0  0
    7.0305   -0.6070   -0.8414 C   0  0  0  0  0  0  0  0  0  0  0  0
    8.0089    0.0475    0.0853 C   0  0  0  0  0  0  0  0  0  0  0  0
    7.1826    0.5760    1.1271 N   0  0  0  0  0  0  0  0  0  0  0  0
    5.8740    0.7933    0.6291 C   0  0  0  0  0  0  0  0  0  0  0  0
    4.9974    1.3999    1.2832 O   0  0  0  0  0  0  0  0  0  0  0  0
   -4.1474    1.1180    0.0382 C   0  0  0  0  0  0  0  0  0  0  0  0
   -5.5974    1.1929    0.4459 C   0  0  0  0  0  0  0  0  0  0  0  0
   -4.0155    0.3598   -1.2335 C   0  0  0  0  0  0  0  0  0  0  0  0
   -3.6141    2.5206   -0.2390 C   0  0  0  0  0  0  0  0  0  0  0  0
   -5.9818    1.2429    5.5120 H   0  0  0  0  0  0  0  0  0  0  0  0
   -5.7093    3.0270    5.8783 H   0  0  0  0  0  0  0  0  0  0  0  0
   -4.6296    1.7515    6.5312 H   0  0  0  0  0  0  0  0  0  0  0  0
   -2.8893    2.2790    2.3870 H   0  0  0  0  0  0  0  0  0  0  0  0
   -3.9110   -0.4345    1.4290 H   0  0  0  0  0  0  0  0  0  0  0  0
   -3.3159   -2.1051    0.3237 H   0  0  0  0  0  0  0  0  0  0  0  0
   -1.7821   -2.9502    0.7761 H   0  0  0  0  0  0  0  0  0  0  0  0
   -2.7625   -2.1491   -1.9845 H   0  0  0  0  0  0  0  0  0  0  0  0
    0.1198   -2.4203   -2.0922 H   0  0  0  0  0  0  0  0  0  0  0  0
   -0.8685   -0.8758   -2.1818 H   0  0  0  0  0  0  0  0  0  0  0  0
   -0.0240   -2.3958    0.3371 H   0  0  0  0  0  0  0  0  0  0  0  0
    2.0704   -1.6608   -1.4960 H   0  0  0  0  0  0  0  0  0  0  0  0
    3.1952    0.6465    0.1490 H   0  0  0  0  0  0  0  0  0  0  0  0
    2.2418    1.7816   -1.6117 H   0  0  0  0  0  0  0  0  0  0  0  0
    3.9965    1.8451   -1.7549 H   0  0  0  0  0  0  0  0  0  0  0  0
    3.9938    0.8861   -3.7406 H   0  0  0  0  0  0  0  0  0  0  0  0
    2.9890   -0.3835   -3.1819 H   0  0  0  0  0  0  0  0  0  0  0  0
    2.3082    1.1156   -3.7092 H   0  0  0  0  0  0  0  0  0  0  0  0
    4.6119   -1.3759   -1.7204 H   0  0  0  0  0  0  0  0  0  0  0  0
    4.5527   -1.3289    0.0753 H   0  0  0  0  0  0  0  0  0  0  0  0
    5.7602    1.0440   -1.4417 H   0  0  0  0  0  0  0  0  0  0  0  0
    6.8052   -1.6322   -0.4696 H   0  0  0  0  0  0  0  0  0  0  0  0
    7.4073   -0.5942   -1.9117 H   0  0  0  0  0  0  0  0  0  0  0  0
    8.7898   -0.6584    0.4253 H   0  0  0  0  0  0  0  0  0  0  0  0
    8.5455    0.8967   -0.3737 H   0  0  0  0  0  0  0  0  0  0  0  0
    7.5148    0.7690    2.1065 H   0  0  0  0  0  0  0  0  0  0  0  0
   -6.2943    1.1609   -0.4404 H   0  0  0  0  0  0  0  0  0  0  0  0
   -5.8593    2.1265    0.9751 H   0  0  0  0  0  0  0  0  0  0  0  0
   -5.9007    0.2728    1.0221 H   0  0  0  0  0  0  0  0  0  0  0  0
   -4.3342    0.9708   -2.1217 H   0  0  0  0  0  0  0  0  0  0  0  0
   -4.6322   -0.5328   -1.2190 H   0  0  0  0  0  0  0  0  0  0  0  0
   -2.9330    0.1332   -1.4168 H   0  0  0  0  0  0  0  0  0  0  0  0
   -4.2797    3.0277   -0.9635 H   0  0  0  0  0  0  0  0  0  0  0  0
   -2.5971    2.5170   -0.6711 H   0  0  0  0  0  0  0  0  0  0  0  0
   -3.5415    3.1063    0.7199 H   0  0  0  0  0  0  0  0  0  0  0  0
  1  2  1  0
  2  3  1  0
  3  4  2  0
  3  5  1  0
  5  6  1  0
  6  7  1  0
  7  8  2  0
  7  9  1  0
  9 10  1  0
 10 11  1  0
 11 12  1  0
 12 13  1  0
 12 14  1  0
 12 15  1  0
 11 16  1  0
 16 17  1  0
 17 18  1  0
 18 19  2  0
 18 20  1  0
 20 21  1  0
 21 22  1  0
 22 23  1  0
 21 24  1  0
 24 25  1  0
 25 26  1  0
 26 27  1  0
 27 28  1  0
 28 29  1  0
 29 30  2  0
  6 31  1  0
 31 32  1  0
 31 33  1  0
 31 34  1  0
 17  9  1  0
 29 25  1  0
  1 35  1  0
  1 36  1  0
  1 37  1  0
  5 38  1  0
  6 39  1  1
 10 40  1  0
 10 41  1  0
 11 42  1  6
 16 43  1  0
 16 44  1  0
 17 45  1  1
 20 46  1  0
 21 47  1  1
 22 48  1  0
 22 49  1  0
 23 50  1  0
 23 51  1  0
 23 52  1  0
 24 53  1  0
 24 54  1  0
 25 55  1  6
 26 56  1  0
 26 57  1  0
 27 58  1  0
 27 59  1  0
 28 60  1  0
 32 61  1  0
 32 62  1  0
 32 63  1  0
 33 64  1  0
 33 65  1  0
 33 66  1  0
 34 67  1  0
 34 68  1  0
 34 69  1  0
M  CHG  1  23   1
M  END
$$$$
