
     RDKit          3D

 66 70  0  0  0  0  0  0  0  0999 V2000
    4.5582   -3.4784   27.2525 C   0  0  0  0  0  0  0  0  0  0  0  0
    5.3774   -4.5512   27.9875 C   0  0  0  0  0  0  0  0  0  0  0  0
    6.7208   -4.4575   27.3200 C   0  0  0  0  0  0  0  0  0  0  0  0
    7.6616   -3.8803   27.6638 O   0  0  0  0  0  0  0  0  0  0  0  0
    6.8745   -5.4249   24.9142 N   0  0  0  0  0  0  0  0  0  0  0  0
    5.3290   -7.6553   25.3866 C   0  0  0  0  0  0  0  0  0  0  0  0
    6.5933   -8.1990   25.7058 C   0  0  0  0  0  0  0  0  0  0  0  0
    6.8983   -7.6077   23.6193 C   0  0  0  0  0  0  0  0  0  0  0  0
    6.8843   -6.1656   23.6550 C   0  0  0  0  0  0  0  0  0  0  0  0
    7.4940   -5.7507   22.5359 C   0  0  0  0  0  0  0  0  0  0  0  0
    7.7523   -4.4275   22.2251 C   0  0  0  0  0  0  0  0  0  0  0  0
    7.4452   -3.5240   23.2216 C   0  0  0  0  0  0  0  0  0  0  0  0
    7.5424   -2.1205   22.9095 N   0  0  0  0  0  0  0  0  0  0  0  0
    7.0673   -1.6364   21.6604 C   0  0  0  0  0  0  0  0  0  0  0  0
    6.2642   -2.2840   21.0298 O   0  0  0  0  0  0  0  0  0  0  0  0
    7.6628   -0.3268   21.0971 C   0  0  0  0  0  0  0  0  0  0  0  0
    6.8163    0.2692   19.9967 C   0  0  0  0  0  0  0  0  0  0  0  0
    7.0998    0.0218   18.6781 C   0  0  0  0  0  0  0  0  0  0  0  0
    6.3849    0.4722   17.6091 N   0  0  0  0  0  0  0  0  0  0  0  0
    5.3284    1.2038   17.8750 C   0  0  0  0  0  0  0  0  0  0  0  0
    4.9043    1.5431   19.1896 C   0  0  0  0  0  0  0  0  0  0  0  0
    3.7539    2.3380   19.4240 C   0  0  0  0  0  0  0  0  0  0  0  0
    3.3641    2.6307   20.7015 C   0  0  0  0  0  0  0  0  0  0  0  0
    4.1110    2.1450   21.7989 C   0  0  0  0  0  0  0  0  0  0  0  0
    5.2333    1.3822   21.6009 C   0  0  0  0  0  0  0  0  0  0  0  0
    5.6625    1.0609   20.2836 C   0  0  0  0  0  0  0  0  0  0  0  0
    5.7949    1.0251   22.4593 H   0  0  0  0  0  0  0  0  0  0  0  0
    3.7931    2.3857   22.8097 H   0  0  0  0  0  0  0  0  0  0  0  0
    2.4834    3.2397   20.8823 H   0  0  0  0  0  0  0  0  0  0  0  0
    3.1940    2.7102   18.5688 H   0  0  0  0  0  0  0  0  0  0  0  0
    4.7533    1.5773   17.0259 H   0  0  0  0  0  0  0  0  0  0  0  0
    7.9661   -0.5844   18.4107 H   0  0  0  0  0  0  0  0  0  0  0  0
    7.8531    0.3762   21.9118 H   0  0  0  0  0  0  0  0  0  0  0  0
    8.6481   -0.5925   20.6860 H   0  0  0  0  0  0  0  0  0  0  0  0
    7.9719   -1.2252   23.8753 N   0  0  0  0  0  0  0  0  0  0  0  0
    9.3917   -1.2107   24.1923 C   0  0  0  0  0  0  0  0  0  0  0  0
    9.9288   -0.3712   23.7167 H   0  0  0  0  0  0  0  0  0  0  0  0
    9.5377   -1.1548   25.2803 H   0  0  0  0  0  0  0  0  0  0  0  0
    9.8091   -2.1539   23.8270 H   0  0  0  0  0  0  0  0  0  0  0  0
    7.0630   -0.3711   24.5193 C   0  0  0  0  0  0  0  0  0  0  0  0
    7.4959    0.8317   25.0977 C   0  0  0  0  0  0  0  0  0  0  0  0
    6.5876    1.6811   25.7179 C   0  0  0  0  0  0  0  0  0  0  0  0
    5.2384    1.3549   25.7901 C   0  0  0  0  0  0  0  0  0  0  0  0
    4.8190    0.1563   25.2196 C   0  0  0  0  0  0  0  0  0  0  0  0
    3.1243   -0.2717   25.2865 Cl  0  0  0  0  0  0  0  0  0  0  0  0
    5.7014   -0.7087   24.5888 C   0  0  0  0  0  0  0  0  0  0  0  0
    5.3438   -1.6375   24.1504 H   0  0  0  0  0  0  0  0  0  0  0  0
    4.5242    2.0149   26.2707 H   0  0  0  0  0  0  0  0  0  0  0  0
    6.9463    2.6128   26.1526 H   0  0  0  0  0  0  0  0  0  0  0  0
    8.5456    1.1068   25.0510 H   0  0  0  0  0  0  0  0  0  0  0  0
    6.8388   -3.9983   24.4301 C   0  0  0  0  0  0  0  0  0  0  0  0
    6.8747   -5.4250   24.9144 C   0  0  0  0  0  0  0  0  0  0  0  0
    7.0073   -3.3255   25.2496 H   0  0  0  0  0  0  0  0  0  0  0  0
    8.0340   -4.1560   21.2134 H   0  0  0  0  0  0  0  0  0  0  0  0
    7.6566   -6.5244   21.7905 H   0  0  0  0  0  0  0  0  0  0  0  0
    7.8239   -8.2726   23.4634 H   0  0  0  0  0  0  0  0  0  0  0  0
    5.9363   -8.1484   23.4533 H   0  0  0  0  0  0  0  0  0  0  0  0
    7.5713   -7.9172   25.4114 H   0  0  0  0  0  0  0  0  0  0  0  0
    6.3327   -9.2446   25.5472 H   0  0  0  0  0  0  0  0  0  0  0  0
    4.6466   -7.0640   25.9464 H   0  0  0  0  0  0  0  0  0  0  0  0
    6.6884   -7.9255   26.8323 H   0  0  0  0  0  0  0  0  0  0  0  0
    5.5718   -4.3523   29.0427 H   0  0  0  0  0  0  0  0  0  0  0  0
    4.9637   -5.5633   27.8307 H   0  0  0  0  0  0  0  0  0  0  0  0
    4.4072   -3.8097   26.2155 H   0  0  0  0  0  0  0  0  0  0  0  0
    5.1231   -2.5406   27.2158 H   0  0  0  0  0  0  0  0  0  0  0  0
    3.5970   -3.2843   27.7357 H   0  0  0  0  0  0  0  0  0  0  0  0
  1  2  1  0
  2  3  1  0
  3  4  2  0
  3  5  1  0
  5  6  1  0
  6  7  1  0
  7  8  1  0
  8  9  1  0
  9 10  2  0
 10 11  1  0
 11 12  2  0
 12 13  1  0
 13 14  1  0
 14 15  2  0
 14 16  1  0
 16 17  1  0
 17 18  2  0
 18 19  1  0
 19 20  2  0
 20 21  1  0
 21 22  2  0
 22 23  1  0
 23 24  2  0
 24 25  1  0
 25 26  2  0
 25 27  1  0
 24 28  1  0
 23 29  1  0
 22 30  1  0
 20 31  1  0
 18 32  1  0
 16 33  1  0
 16 34  1  0
 13 35  1  0
 35 36  1  0
 36 37  1  0
 36 38  1  0
 36 39  1  0
 35 40  1  0
 40 41  2  0
 41 42  1  0
 42 43  2  0
 43 44  1  0
 44 45  1  0
 44 46  2  0
 46 47  1  0
 43 48  1  0
 42 49  1  0
 41 50  1  0
 12 51  1  0
 51 52  2  0
 51 53  1  0
 11 54  1  0
 10 55  1  0
  8 56  1  0
  8 57  1  0
  7 58  1  0
  7 59  1  0
  6 60  1  0
  6 61  1  0
  2 62  1  0
  2 63  1  0
  1 64  1  0
  1 65  1  0
  1 66  1  0
 52  5  1  0
 52  9  1  0
 26 17  1  0
 46 40  1  0
 26 21  1  0
M  END
>  <cnnaffinities>  (1) 
[6.60561]

>  <score>  (1) 
6.60561

>  <index>  (1) 
0

>  <Smiles>  (1) 
C(C(C(=O)N1C(C(C(c2c(c(c(N(C(=O)C(c3c(nc(c4c(c(c(c(c34)[H])[H])[H])[H])[H])[H])([H])[H])N(C([H])([H])[H])c3c(c(c(c(Cl)c3[H])[H])[H])[H])c(c12)[H])[H])[H])([H])[H])([H])[H])([H])[H])([H])[H])([H])([H])[H]

>  <h>  (1) 
<NA>

>  <Training>  (1) 
True

>  <Success>  (1) 
True

>  <enamine_searched>  (1) 
False

>  <enamine_id>  (1) 
nan

$$$$

     RDKit          3D

 64 70  0  0  0  0  0  0  0  0999 V2000
   11.0351    3.0807   24.1394 O   0  0  0  0  0  0  0  0  0  0  0  0
   10.5157    2.0242   23.8122 C   0  0  0  0  0  0  0  0  0  0  0  0
   11.3204    0.8944   23.2176 C   0  0  0  0  0  0  0  0  0  0  0  0
   12.7093    1.0017   23.2403 C   0  0  0  0  0  0  0  0  0  0  0  0
   13.4968    0.0586   22.6097 C   0  0  0  0  0  0  0  0  0  0  0  0
   12.8719   -0.9673   21.9005 C   0  0  0  0  0  0  0  0  0  0  0  0
   13.8184   -2.0574   20.9360 Cl  0  0  0  0  0  0  0  0  0  0  0  0
   11.4977   -1.1158   21.9038 C   0  0  0  0  0  0  0  0  0  0  0  0
   10.7014   -0.2057   22.6087 C   0  0  0  0  0  0  0  0  0  0  0  0
    9.1920   -0.2923   22.6352 C   0  0  1  0  0  0  0  0  0  0  0  0
    8.7151    0.3963   23.9418 C   0  0  0  0  0  0  0  0  0  0  0  0
    9.1775    1.7716   23.9903 N   0  0  0  0  0  0  0  0  0  0  0  0
    8.3087    2.8497   24.4402 C   0  0  0  0  0  0  0  0  0  0  0  0
    8.0223    3.9078   23.4282 C   0  0  0  0  0  0  0  0  0  0  0  0
    8.3299    5.1617   23.4053 N   0  0  0  0  0  0  0  0  0  0  0  0
    7.7452    5.6867   22.2589 N   0  0  0  0  0  0  0  0  0  0  0  0
    7.1221    4.7044   21.6976 C   0  0  0  0  0  0  0  0  0  0  0  0
    7.2412    3.5525   22.3883 O   0  0  0  0  0  0  0  0  0  0  0  0
    6.5588    4.6662   20.7759 H   0  0  0  0  0  0  0  0  0  0  0  0
    8.7329    3.3402   25.3089 H   0  0  0  0  0  0  0  0  0  0  0  0
    7.3415    2.4220   24.7196 H   0  0  0  0  0  0  0  0  0  0  0  0
    9.1093   -0.1523   24.8116 H   0  0  0  0  0  0  0  0  0  0  0  0
    7.6206    0.3860   23.9852 H   0  0  0  0  0  0  0  0  0  0  0  0
    8.5891    0.4470   21.4244 C   0  0  0  0  0  0  0  0  0  0  0  0
    8.9118    1.5176   20.9564 O   0  0  0  0  0  0  0  0  0  0  0  0
    7.5549   -0.3159   20.9326 N   0  0  0  0  0  0  0  0  0  0  0  0
    6.7418    0.2047   19.9060 C   0  0  0  0  0  0  0  0  0  0  0  0
    7.0688   -0.0326   18.5977 C   0  0  0  0  0  0  0  0  0  0  0  0
    6.3508    0.4321   17.5478 N   0  0  0  0  0  0  0  0  0  0  0  0
    5.3036    1.1764   17.8221 C   0  0  0  0  0  0  0  0  0  0  0  0
    4.8843    1.5281   19.1387 C   0  0  0  0  0  0  0  0  0  0  0  0
    3.7597    2.3568   19.3948 C   0  0  0  0  0  0  0  0  0  0  0  0
    3.3745    2.6349   20.6791 C   0  0  0  0  0  0  0  0  0  0  0  0
    4.1002    2.1123   21.7748 C   0  0  0  0  0  0  0  0  0  0  0  0
    5.2086    1.3315   21.5555 C   0  0  0  0  0  0  0  0  0  0  0  0
    5.6182    1.0196   20.2265 C   0  0  0  0  0  0  0  0  0  0  0  0
    5.7873    0.9631   22.3990 H   0  0  0  0  0  0  0  0  0  0  0  0
    3.7934    2.3455   22.7931 H   0  0  0  0  0  0  0  0  0  0  0  0
    2.5102    3.2705   20.8674 H   0  0  0  0  0  0  0  0  0  0  0  0
    3.2206    2.7689   18.5472 H   0  0  0  0  0  0  0  0  0  0  0  0
    4.7290    1.5508   16.9769 H   0  0  0  0  0  0  0  0  0  0  0  0
    7.9567   -0.6193   18.3578 H   0  0  0  0  0  0  0  0  0  0  0  0
    7.2823   -1.5228   21.6801 C   0  0  0  0  0  0  0  0  0  0  0  0
    8.5912   -1.7113   22.4668 C   0  0  2  0  0  0  0  0  0  0  0  0
    8.4288   -2.5143   23.7649 C   0  0  0  0  0  0  0  0  0  0  0  0
    8.1458   -3.9236   23.5596 N   0  0  0  0  0  0  0  0  0  0  0  0
    6.9140   -4.4281   23.2525 C   0  0  0  0  0  0  0  0  0  0  0  0
    5.7087   -3.8605   23.7096 C   0  0  0  0  0  0  0  0  0  0  0  0
    4.5619   -4.5688   23.4049 C   0  0  0  0  0  0  0  0  0  0  0  0
    4.5441   -5.6742   22.6511 N   0  0  0  0  0  0  0  0  0  0  0  0
    5.7364   -6.0853   22.2420 C   0  0  0  0  0  0  0  0  0  0  0  0
    6.9174   -5.5497   22.5154 N   0  0  0  0  0  0  0  0  0  0  0  0
    5.7528   -6.9750   21.6144 H   0  0  0  0  0  0  0  0  0  0  0  0
    3.6015   -4.2358   23.7898 H   0  0  0  0  0  0  0  0  0  0  0  0
    5.6845   -2.9380   24.2860 H   0  0  0  0  0  0  0  0  0  0  0  0
    8.8838   -4.4367   23.0892 H   0  0  0  0  0  0  0  0  0  0  0  0
    7.6395   -2.0685   24.3842 H   0  0  0  0  0  0  0  0  0  0  0  0
    9.3611   -2.4587   24.3373 H   0  0  0  0  0  0  0  0  0  0  0  0
    9.2666   -2.2691   21.8102 H   0  0  0  0  0  0  0  0  0  0  0  0
    7.0556   -2.3460   20.9949 H   0  0  0  0  0  0  0  0  0  0  0  0
    6.4121   -1.4021   22.3496 H   0  0  0  0  0  0  0  0  0  0  0  0
   11.0757   -1.9301   21.3247 H   0  0  0  0  0  0  0  0  0  0  0  0
   14.5753    0.1342   22.6434 H   0  0  0  0  0  0  0  0  0  0  0  0
   13.1465    1.8537   23.7495 H   0  0  0  0  0  0  0  0  0  0  0  0
  1  2  2  0
  2  3  1  0
  3  4  2  0
  4  5  1  0
  5  6  2  0
  6  7  1  0
  6  8  1  0
  8  9  2  0
  9 10  1  0
 10 11  1  1
 11 12  1  0
 12 13  1  0
 13 14  1  0
 14 15  2  0
 15 16  1  0
 16 17  2  0
 17 18  1  0
 17 19  1  0
 13 20  1  0
 13 21  1  0
 11 22  1  0
 11 23  1  0
 10 24  1  0
 24 25  2  0
 24 26  1  0
 26 27  1  0
 27 28  2  0
 28 29  1  0
 29 30  2  0
 30 31  1  0
 31 32  2  0
 32 33  1  0
 33 34  2  0
 34 35  1  0
 35 36  2  0
 35 37  1  0
 34 38  1  0
 33 39  1  0
 32 40  1  0
 30 41  1  0
 28 42  1  0
 26 43  1  0
 43 44  1  0
 44 45  1  0
 45 46  1  0
 46 47  1  0
 47 48  2  0
 48 49  1  0
 49 50  2  0
 50 51  1  0
 51 52  2  0
 51 53  1  0
 49 54  1  0
 48 55  1  0
 46 56  1  0
 45 57  1  0
 45 58  1  0
 44 59  1  6
 43 60  1  0
 43 61  1  0
  8 62  1  0
  5 63  1  0
  4 64  1  0
 12  2  1  0
 18 14  1  0
 36 27  1  0
 52 47  1  0
  9  3  1  0
 44 10  1  0
 36 31  1  0
M  END
>  <cnnaffinities>  (2) 
[6.95953, 6.99478, 7.05809, 6.85427, 6.98557, 6.81269, 7.03701, 6.9854, 7.08214]

>  <score>  (2) 
6.95953

>  <index>  (2) 
1

>  <Smiles>  (2) 
O=C1c2c(c(c(Cl)c(c2[C@@]2(C(N1C(c1nnc(o1)[H])([H])[H])([H])[H])C(=O)N(c1c(nc(c3c(c(c(c(c13)[H])[H])[H])[H])[H])[H])C([C@@]2(C(N(c1c(c(nc(n1)[H])[H])[H])[H])([H])[H])[H])([H])[H])[H])[H])[H]

>  <h>  (2) 
<NA>

>  <Training>  (2) 
True

>  <Success>  (2) 
True

>  <enamine_searched>  (2) 
False

>  <enamine_id>  (2) 
nan

$$$$

     RDKit          3D

 56 61  0  0  0  0  0  0  0  0999 V2000
    8.1660   -2.2742   23.9741 C   0  0  0  0  0  0  0  0  0  0  0  0
    8.5374   -1.6207   22.6419 C   0  0  1  0  0  0  0  0  0  0  0  0
    7.3201   -1.4810   21.7091 C   0  0  0  0  0  0  0  0  0  0  0  0
    7.6258   -0.2998   20.9343 N   0  0  0  0  0  0  0  0  0  0  0  0
    6.7842    0.2214   19.9301 C   0  0  0  0  0  0  0  0  0  0  0  0
    7.1054   -0.0075   18.6218 C   0  0  0  0  0  0  0  0  0  0  0  0
    6.3827    0.4434   17.5699 N   0  0  0  0  0  0  0  0  0  0  0  0
    5.3271    1.1706   17.8593 C   0  0  0  0  0  0  0  0  0  0  0  0
    4.9152    1.5184   19.1793 C   0  0  0  0  0  0  0  0  0  0  0  0
    3.7870    2.3428   19.4219 C   0  0  0  0  0  0  0  0  0  0  0  0
    3.4064    2.6450   20.6994 C   0  0  0  0  0  0  0  0  0  0  0  0
    4.1320    2.1372   21.8003 C   0  0  0  0  0  0  0  0  0  0  0  0
    5.2262    1.3322   21.5934 C   0  0  0  0  0  0  0  0  0  0  0  0
    5.6542    1.0177   20.2685 C   0  0  0  0  0  0  0  0  0  0  0  0
    5.7737    0.9585   22.4555 H   0  0  0  0  0  0  0  0  0  0  0  0
    3.8131    2.3825   22.8095 H   0  0  0  0  0  0  0  0  0  0  0  0
    2.5348    3.2677   20.8732 H   0  0  0  0  0  0  0  0  0  0  0  0
    3.2378    2.7198   18.5645 H   0  0  0  0  0  0  0  0  0  0  0  0
    4.7365    1.5357   17.0219 H   0  0  0  0  0  0  0  0  0  0  0  0
    7.9967   -0.5898   18.3987 H   0  0  0  0  0  0  0  0  0  0  0  0
    8.5807    0.5203   21.4810 C   0  0  0  0  0  0  0  0  0  0  0  0
    8.8121    1.6393   21.0667 O   0  0  0  0  0  0  0  0  0  0  0  0
    9.2039   -0.2038   22.6883 C   0  0  1  0  0  0  0  0  0  0  0  0
    8.8655    0.6043   23.9614 C   0  0  0  0  0  0  0  0  0  0  0  0
    9.5025    1.9042   23.9103 N   0  0  0  0  0  0  0  0  0  0  0  0
    8.7727    3.0581   24.3907 C   0  0  0  0  0  0  0  0  0  0  0  0
    7.4044    3.3550   23.7290 C   0  0  0  0  0  0  0  0  0  0  0  0
    7.8991    4.6828   23.1746 N   0  0  0  0  0  4  0  0  0  0  0  0
    9.2454    4.4181   23.8215 C   0  0  0  0  0  0  0  0  0  0  0  0
   10.0368    4.3509   23.0864 H   0  0  0  0  0  0  0  0  0  0  0  0
    9.4956    5.1446   24.5855 H   0  0  0  0  0  0  0  0  0  0  0  0
    7.9838    4.6688   22.1375 H   0  0  0  0  0  0  0  0  0  0  0  0
    7.3950    5.5204   23.5111 H   0  0  0  0  0  0  0  0  0  0  0  0
    6.5774    3.4913   24.4241 H   0  0  0  0  0  0  0  0  0  0  0  0
    7.1335    2.6978   22.9136 H   0  0  0  0  0  0  0  0  0  0  0  0
    8.6910    3.0429   25.4812 H   0  0  0  0  0  0  0  0  0  0  0  0
   10.8625    1.9767   23.7704 C   0  0  0  0  0  0  0  0  0  0  0  0
   11.5285    2.9484   24.1114 O   0  0  0  0  0  0  0  0  0  0  0  0
   11.4895    0.7538   23.1806 C   0  0  0  0  0  0  0  0  0  0  0  0
   12.8734    0.6247   23.2462 C   0  0  0  0  0  0  0  0  0  0  0  0
   13.5114   -0.3697   22.5332 C   0  0  0  0  0  0  0  0  0  0  0  0
   12.7420   -1.1651   21.6809 C   0  0  0  0  0  0  0  0  0  0  0  0
   13.5535   -2.2269   20.5725 Cl  0  0  0  0  0  0  0  0  0  0  0  0
   11.3597   -1.1312   21.7045 C   0  0  0  0  0  0  0  0  0  0  0  0
   10.7112   -0.2177   22.5431 C   0  0  0  0  0  0  0  0  0  0  0  0
   10.8104   -1.8079   21.0575 H   0  0  0  0  0  0  0  0  0  0  0  0
   14.5811   -0.5105   22.5927 H   0  0  0  0  0  0  0  0  0  0  0  0
   13.4015    1.3568   23.8458 H   0  0  0  0  0  0  0  0  0  0  0  0
    9.2081    0.0404   24.8419 H   0  0  0  0  0  0  0  0  0  0  0  0
    7.7932    0.7677   24.0403 H   0  0  0  0  0  0  0  0  0  0  0  0
    7.1955   -2.3421   21.0431 H   0  0  0  0  0  0  0  0  0  0  0  0
    6.3796   -1.3646   22.2738 H   0  0  0  0  0  0  0  0  0  0  0  0
    9.2486   -2.2874   22.1447 H   0  0  0  0  0  0  0  0  0  0  0  0
    7.4040   -1.6969   24.5120 H   0  0  0  0  0  0  0  0  0  0  0  0
    9.0356   -2.3784   24.6299 H   0  0  0  0  0  0  0  0  0  0  0  0
    7.7616   -3.2788   23.8007 H   0  0  0  0  0  0  0  0  0  0  0  0
  1  2  1  0
  2  3  1  0
  3  4  1  0
  4  5  1  0
  5  6  2  0
  6  7  1  0
  7  8  2  0
  8  9  1  0
  9 10  2  0
 10 11  1  0
 11 12  2  0
 12 13  1  0
 13 14  2  0
 13 15  1  0
 12 16  1  0
 11 17  1  0
 10 18  1  0
  8 19  1  0
  6 20  1  0
  4 21  1  0
 21 22  2  0
 21 23  1  0
 23 24  1  1
 24 25  1  0
 25 26  1  0
 26 27  1  0
 27 28  1  0
 28 29  1  0
 29 30  1  0
 29 31  1  0
 28 32  1  0
 28 33  1  0
 27 34  1  0
 27 35  1  0
 26 36  1  0
 25 37  1  0
 37 38  2  0
 37 39  1  0
 39 40  2  0
 40 41  1  0
 41 42  2  0
 42 43  1  0
 42 44  1  0
 44 45  2  0
 44 46  1  0
 41 47  1  0
 40 48  1  0
 24 49  1  0
 24 50  1  0
  3 51  1  0
  3 52  1  0
  2 53  1  6
  1 54  1  0
  1 55  1  0
  1 56  1  0
 23  2  1  0
 29 26  1  0
 45 39  1  0
 14  5  1  0
 45 23  1  0
 14  9  1  0
M  CHG  1  28   1
M  END
>  <cnnaffinities>  (3) 
[6.57799, 6.57612, 6.45194, 6.4499, 5.84613, 5.84407]

>  <score>  (3) 
6.57799

>  <index>  (3) 
2

>  <Smiles>  (3) 
C([C@]1(C(N(c2c(nc(c3c(c(c(c(c23)[H])[H])[H])[H])[H])[H])C(=O)[C@]21C(N(C1(C([N+](C1([H])[H])([H])[H])([H])[H])[H])C(=O)c1c(c(c(Cl)c(c21)[H])[H])[H])([H])[H])([H])[H])[H])([H])([H])[H]

>  <h>  (3) 
<NA>

>  <Training>  (3) 
True

>  <Success>  (3) 
True

>  <enamine_searched>  (3) 
False

>  <enamine_id>  (3) 
nan

$$$$

     RDKit          3D

 55 60  0  0  0  0  0  0  0  0999 V2000
    8.3060   -2.4743   23.7985 C   0  0  0  0  0  0  0  0  0  0  0  0
    8.6119   -1.7372   22.4936 C   0  0  1  0  0  0  0  0  0  0  0  0
    7.3515   -1.5730   21.6228 C   0  0  0  0  0  0  0  0  0  0  0  0
    7.5959   -0.3369   20.9162 N   0  0  0  0  0  0  0  0  0  0  0  0
    6.7666    0.1961   19.9139 C   0  0  0  0  0  0  0  0  0  0  0  0
    7.0920   -0.0287   18.6048 C   0  0  0  0  0  0  0  0  0  0  0  0
    6.3681    0.4211   17.5546 N   0  0  0  0  0  0  0  0  0  0  0  0
    5.3132    1.1505   17.8394 C   0  0  0  0  0  0  0  0  0  0  0  0
    4.8968    1.4951   19.1587 C   0  0  0  0  0  0  0  0  0  0  0  0
    3.7784    2.3340   19.4029 C   0  0  0  0  0  0  0  0  0  0  0  0
    3.3905    2.6221   20.6804 C   0  0  0  0  0  0  0  0  0  0  0  0
    4.1049    2.0917   21.7803 C   0  0  0  0  0  0  0  0  0  0  0  0
    5.2036    1.2927   21.5734 C   0  0  0  0  0  0  0  0  0  0  0  0
    5.6300    0.9876   20.2495 C   0  0  0  0  0  0  0  0  0  0  0  0
    5.7764    0.9352   22.4279 H   0  0  0  0  0  0  0  0  0  0  0  0
    3.8041    2.3481   22.7914 H   0  0  0  0  0  0  0  0  0  0  0  0
    2.5353    3.2686   20.8578 H   0  0  0  0  0  0  0  0  0  0  0  0
    3.2470    2.7355   18.5445 H   0  0  0  0  0  0  0  0  0  0  0  0
    4.7398    1.5286   16.9958 H   0  0  0  0  0  0  0  0  0  0  0  0
    7.9814   -0.6118   18.3756 H   0  0  0  0  0  0  0  0  0  0  0  0
    8.5990    0.4427   21.4327 C   0  0  0  0  0  0  0  0  0  0  0  0
    8.9098    1.5225   20.9775 O   0  0  0  0  0  0  0  0  0  0  0  0
    9.1960   -0.2993   22.6412 C   0  0  1  0  0  0  0  0  0  0  0  0
    8.7105    0.3456   23.9594 C   0  0  0  0  0  0  0  0  0  0  0  0
    9.1476    1.7202   24.0541 N   0  0  0  0  0  0  0  0  0  0  0  0
    8.2311    2.7630   24.5013 C   0  0  0  0  0  0  0  0  0  0  0  0
    7.9893    3.8576   23.4944 C   0  0  0  0  0  0  0  0  0  0  0  0
    8.8332    4.9160   23.0380 C   0  0  0  0  0  0  0  0  0  0  0  0
    8.0461    5.5755   22.1559 C   0  0  0  0  0  0  0  0  0  0  0  0
    6.8437    4.9884   22.0736 O   0  0  0  0  0  0  0  0  0  0  0  0
    6.8087    3.9187   22.9272 N   0  0  0  0  0  0  0  0  0  0  0  0
    8.1606    6.4479   21.5261 H   0  0  0  0  0  0  0  0  0  0  0  0
    9.8486    5.1352   23.3346 H   0  0  0  0  0  0  0  0  0  0  0  0
    7.2652    2.2919   24.7168 H   0  0  0  0  0  0  0  0  0  0  0  0
    8.6087    3.1972   25.4265 H   0  0  0  0  0  0  0  0  0  0  0  0
   10.4730    2.0143   23.8712 C   0  0  0  0  0  0  0  0  0  0  0  0
   10.9792    3.0725   24.2217 O   0  0  0  0  0  0  0  0  0  0  0  0
   11.3001    0.9343   23.2381 C   0  0  0  0  0  0  0  0  0  0  0  0
   12.6875    1.0488   23.2888 C   0  0  0  0  0  0  0  0  0  0  0  0
   13.4831    0.1279   22.6356 C   0  0  0  0  0  0  0  0  0  0  0  0
   12.8702   -0.8694   21.8820 C   0  0  0  0  0  0  0  0  0  0  0  0
   13.6363   -1.7108   21.1666 F   0  0  0  0  0  0  0  0  0  0  0  0
   11.4996   -1.0192   21.8420 C   0  0  0  0  0  0  0  0  0  0  0  0
   10.7005   -0.1572   22.5979 C   0  0  0  0  0  0  0  0  0  0  0  0
   11.0747   -1.7955   21.2149 H   0  0  0  0  0  0  0  0  0  0  0  0
   14.5607    0.1681   22.6861 H   0  0  0  0  0  0  0  0  0  0  0  0
   13.1017    1.8836   23.8438 H   0  0  0  0  0  0  0  0  0  0  0  0
    9.1151   -0.2501   24.7925 H   0  0  0  0  0  0  0  0  0  0  0  0
    7.6177    0.3217   24.0059 H   0  0  0  0  0  0  0  0  0  0  0  0
    6.4432   -1.5088   22.2440 H   0  0  0  0  0  0  0  0  0  0  0  0
    7.2108   -2.3997   20.9190 H   0  0  0  0  0  0  0  0  0  0  0  0
    9.3363   -2.3247   21.9230 H   0  0  0  0  0  0  0  0  0  0  0  0
    9.1853   -2.5290   24.4499 H   0  0  0  0  0  0  0  0  0  0  0  0
    7.5132   -1.9612   24.3578 H   0  0  0  0  0  0  0  0  0  0  0  0
    7.9562   -3.4920   23.5960 H   0  0  0  0  0  0  0  0  0  0  0  0
  1  2  1  0
  2  3  1  0
  3  4  1  0
  4  5  1  0
  5  6  2  0
  6  7  1  0
  7  8  2  0
  8  9  1  0
  9 10  2  0
 10 11  1  0
 11 12  2  0
 12 13  1  0
 13 14  2  0
 13 15  1  0
 12 16  1  0
 11 17  1  0
 10 18  1  0
  8 19  1  0
  6 20  1  0
  4 21  1  0
 21 22  2  0
 21 23  1  0
 23 24  1  1
 24 25  1  0
 25 26  1  0
 26 27  1  0
 27 28  1  0
 28 29  2  0
 29 30  1  0
 30 31  1  0
 29 32  1  0
 28 33  1  0
 26 34  1  0
 26 35  1  0
 25 36  1  0
 36 37  2  0
 36 38  1  0
 38 39  2  0
 39 40  1  0
 40 41  2  0
 41 42  1  0
 41 43  1  0
 43 44  2  0
 43 45  1  0
 40 46  1  0
 39 47  1  0
 24 48  1  0
 24 49  1  0
  3 50  1  0
  3 51  1  0
  2 52  1  6
  1 53  1  0
  1 54  1  0
  1 55  1  0
 23  2  1  0
 31 27  2  0
 44 38  1  0
 14  5  1  0
 44 23  1  0
 14  9  1  0
M  END
>  <cnnaffinities>  (4) 
[6.52509]

>  <score>  (4) 
6.52509

>  <index>  (4) 
3

>  <Smiles>  (4) 
C([C@]1(C(N(c2c(nc(c3c(c(c(c(c23)[H])[H])[H])[H])[H])[H])C(=O)[C@]21C(N(C(c1c(c(on1)[H])[H])([H])[H])C(=O)c1c(c(c(F)c(c21)[H])[H])[H])([H])[H])([H])[H])[H])([H])([H])[H]

>  <h>  (4) 
<NA>

>  <Training>  (4) 
True

>  <Success>  (4) 
True

>  <enamine_searched>  (4) 
False

>  <enamine_id>  (4) 
nan

$$$$

     RDKit          3D

 57 60  0  0  0  0  0  0  0  0999 V2000
   13.2709    0.0026   24.8789 C   0  0  0  0  0  0  0  0  0  0  0  0
   13.2581   -1.2557   24.1356 C   0  0  0  0  0  0  0  0  0  0  0  0
   13.7066   -2.3254   25.1543 C   0  0  0  0  0  0  0  0  0  0  0  0
   14.7103   -1.9636   25.3282 H   0  0  0  0  0  0  0  0  0  0  0  0
   13.0611   -2.4325   26.0448 H   0  0  0  0  0  0  0  0  0  0  0  0
   13.7699   -3.2041   24.5526 H   0  0  0  0  0  0  0  0  0  0  0  0
   14.2371   -0.9167   23.0096 C   0  0  0  0  0  0  0  0  0  0  0  0
   14.2372   -0.9168   23.0097 N   0  0  0  0  0  0  0  0  0  0  0  0
   11.8032   -1.4854   23.6762 C   0  0  0  0  0  0  0  0  0  0  0  0
   10.6937   -0.8446   24.1598 C   0  0  0  0  0  0  0  0  0  0  0  0
    9.3918   -1.1289   23.7252 C   0  0  0  0  0  0  0  0  0  0  0  0
    9.2154   -2.1147   22.7565 C   0  0  0  0  0  0  0  0  0  0  0  0
    7.9619   -2.5135   22.2325 N   0  0  0  0  0  0  0  0  0  0  0  0
    7.4659   -3.8297   22.6313 C   0  0  0  0  0  0  0  0  0  0  0  0
    6.9260   -3.8510   24.0502 C   0  0  0  0  0  0  0  0  0  0  0  0
    7.7833   -4.0190   25.1381 C   0  0  0  0  0  0  0  0  0  0  0  0
    7.2954   -3.9532   26.4389 C   0  0  0  0  0  0  0  0  0  0  0  0
    5.9445   -3.7325   26.6749 C   0  0  0  0  0  0  0  0  0  0  0  0
    5.0984   -3.5798   25.5858 C   0  0  0  0  0  0  0  0  0  0  0  0
    3.4057   -3.2928   25.8630 Cl  0  0  0  0  0  0  0  0  0  0  0  0
    5.5685   -3.6402   24.2810 C   0  0  0  0  0  0  0  0  0  0  0  0
    4.8845   -3.4904   23.4505 H   0  0  0  0  0  0  0  0  0  0  0  0
    5.5500   -3.6762   27.6856 H   0  0  0  0  0  0  0  0  0  0  0  0
    7.9737   -4.0607   27.2792 H   0  0  0  0  0  0  0  0  0  0  0  0
    8.8470   -4.1705   24.9674 H   0  0  0  0  0  0  0  0  0  0  0  0
    8.2912   -4.5456   22.5552 H   0  0  0  0  0  0  0  0  0  0  0  0
    6.6938   -4.1281   21.9201 H   0  0  0  0  0  0  0  0  0  0  0  0
    7.1170   -1.6181   21.6452 C   0  0  0  0  0  0  0  0  0  0  0  0
    5.8920   -1.8859   21.5562 O   0  0  0  0  0  0  0  0  0  0  0  0
    7.6910   -0.3223   21.0617 C   0  0  0  0  0  0  0  0  0  0  0  0
    6.8222    0.2760   19.9876 C   0  0  0  0  0  0  0  0  0  0  0  0
    7.0995    0.0325   18.6683 C   0  0  0  0  0  0  0  0  0  0  0  0
    6.3814    0.4779   17.6050 N   0  0  0  0  0  0  0  0  0  0  0  0
    5.3252    1.2094   17.8739 C   0  0  0  0  0  0  0  0  0  0  0  0
    4.9051    1.5447   19.1900 C   0  0  0  0  0  0  0  0  0  0  0  0
    3.7538    2.3424   19.4251 C   0  0  0  0  0  0  0  0  0  0  0  0
    3.3607    2.6346   20.7037 C   0  0  0  0  0  0  0  0  0  0  0  0
    4.1041    2.1415   21.7983 C   0  0  0  0  0  0  0  0  0  0  0  0
    5.2255    1.3734   21.5962 C   0  0  0  0  0  0  0  0  0  0  0  0
    5.6627    1.0589   20.2808 C   0  0  0  0  0  0  0  0  0  0  0  0
    5.7759    0.9844   22.4462 H   0  0  0  0  0  0  0  0  0  0  0  0
    3.7842    2.3762   22.8096 H   0  0  0  0  0  0  0  0  0  0  0  0
    2.4788    3.2452   20.8829 H   0  0  0  0  0  0  0  0  0  0  0  0
    3.1932    2.7181   18.5729 H   0  0  0  0  0  0  0  0  0  0  0  0
    4.7515    1.5833   17.0252 H   0  0  0  0  0  0  0  0  0  0  0  0
    7.9624   -0.5713   18.3949 H   0  0  0  0  0  0  0  0  0  0  0  0
    8.6958   -0.5380   20.6726 H   0  0  0  0  0  0  0  0  0  0  0  0
    7.8447    0.4001   21.8766 H   0  0  0  0  0  0  0  0  0  0  0  0
   10.3337   -2.7769   22.2860 C   0  0  0  0  0  0  0  0  0  0  0  0
   11.5865   -2.4989   22.7434 C   0  0  0  0  0  0  0  0  0  0  0  0
   12.4792   -3.0205   22.4084 H   0  0  0  0  0  0  0  0  0  0  0  0
   10.1320   -3.4467   21.4609 H   0  0  0  0  0  0  0  0  0  0  0  0
    8.5141   -0.6248   24.1431 H   0  0  0  0  0  0  0  0  0  0  0  0
   10.7892   -0.0475   24.9051 H   0  0  0  0  0  0  0  0  0  0  0  0
   12.7634    0.0552   25.8273 H   0  0  0  0  0  0  0  0  0  0  0  0
   12.9980    0.8176   24.2588 H   0  0  0  0  0  0  0  0  0  0  0  0
   14.3292    0.0227   24.9962 H   0  0  0  0  0  0  0  0  0  0  0  0
  1  2  1  0
  2  3  1  0
  3  4  1  0
  3  5  1  0
  3  6  1  0
  2  7  1  0
  7  8  3  0
  2  9  1  0
  9 10  2  0
 10 11  1  0
 11 12  2  0
 12 13  1  0
 13 14  1  0
 14 15  1  0
 15 16  2  0
 16 17  1  0
 17 18  2  0
 18 19  1  0
 19 20  1  0
 19 21  2  0
 21 22  1  0
 18 23  1  0
 17 24  1  0
 16 25  1  0
 14 26  1  0
 14 27  1  0
 13 28  1  0
 28 29  2  0
 28 30  1  0
 30 31  1  0
 31 32  2  0
 32 33  1  0
 33 34  2  0
 34 35  1  0
 35 36  2  0
 36 37  1  0
 37 38  2  0
 38 39  1  0
 39 40  2  0
 39 41  1  0
 38 42  1  0
 37 43  1  0
 36 44  1  0
 34 45  1  0
 32 46  1  0
 30 47  1  0
 30 48  1  0
 12 49  1  0
 49 50  2  0
 50 51  1  0
 49 52  1  0
 11 53  1  0
 10 54  1  0
  1 55  1  0
  1 56  1  0
  1 57  1  0
 50  9  1  0
 21 15  1  0
 40 31  1  0
 40 35  1  0
M  END
>  <cnnaffinities>  (5) 
[6.6673]

>  <score>  (5) 
6.6673

>  <index>  (5) 
4

>  <Smiles>  (5) 
C(C(C([H])([H])[H])(C#N)c1c(c(c(N(C(c2c(c(c(c(Cl)c2[H])[H])[H])[H])([H])[H])C(=O)C(c2c(nc(c3c(c(c(c(c23)[H])[H])[H])[H])[H])[H])([H])[H])c(c1[H])[H])[H])[H])([H])([H])[H]

>  <h>  (5) 
<NA>

>  <Training>  (5) 
True

>  <Success>  (5) 
True

>  <enamine_searched>  (5) 
False

>  <enamine_id>  (5) 
nan

$$$$
