lig-mers.pdb
 OpenBabel03042515403D

  7  7  0  0  0  0  0  0  0  0999 V2000
    8.4890    0.5610   22.1460 N   0  0  0  0  0  0  0  0  0  0  0  0
    7.5180    2.0650   20.7050 O   0  0  0  0  0  0  0  0  0  0  0  0
    6.8530   -0.1620   20.8630 N   0  0  0  0  0  0  0  0  0  0  0  0
    6.5260   -2.2870   21.7700 O   0  0  0  0  0  0  0  0  0  0  0  0
    8.3790   -0.8540   22.4980 C   0  0  0  0  0  0  0  0  0  0  0  0
    7.6370    0.9470   21.1780 C   0  0  0  0  0  0  0  0  0  0  0  0
    7.1510   -1.2460   21.6900 C   0  0  0  0  0  0  0  0  0  0  0  0
  1  5  1  0  0  0  0
  2  6  2  0  0  0  0
  3  6  1  0  0  0  0
  3  7  1  0  0  0  0
  6  1  1  0  0  0  0
  7  4  2  0  0  0  0
  7  5  1  0  0  0  0
M  END
$$$$
